34
E: -3111816.6184831765 kcal/mol
  B    0.410079332  -1.088200756   1.446782569
 As    1.677959753  -0.656283882  -0.351951826
  B    0.486834304   0.648738793   0.842571306
  B   -0.973879877  -0.011697799   1.604622008
  B   -1.108298918   1.073907672   0.189033046
  B    0.168545827   0.708639419  -0.989200237
  B   -0.126329107  -0.987230208  -1.641309215
  B   -1.618668364  -1.613872797  -0.755462634
  B   -1.470550739   0.081665943  -1.255020870
  B   -2.188721607  -0.331163892   0.330623191
  B   -1.300764096  -1.673557813   1.077849189
 As    0.154414524  -2.627679069  -0.150809262
  H    1.062007798  -1.499828622   2.346802086
  H    0.180194824  -1.334357706  -2.732093170
  H    0.669471771   1.525990257  -1.689498162
  H    1.203138826   1.425410510   1.383655021
  H   -1.271857036   0.326554395   2.701953481
  H   -1.804179757  -2.488415651   1.778872849
  H   -2.337425108  -2.388186412  -1.296311077
  H   -2.117104564   0.485785110  -2.164177807
  H   -1.501247985   2.188310154   0.293236923
  H   -3.351674086  -0.220120821   0.535933002
  C    4.811180150  -1.886556741  -1.881266330
  C    5.223216201  -1.676846096  -0.563935887
  C    4.747041623  -2.502111881   0.457104761
  C    3.865143797  -3.543178112   0.159047879
  C    3.457786511  -3.756908566  -1.160290357
  C    3.926665959  -2.925460309  -2.179786841
  H    5.909582025  -0.867890941  -0.332098276
  H    5.062848741  -2.335683438   1.482722839
  H    3.497416627  -4.187434673   0.952477818
  H    2.776868503  -4.570361930  -1.393048458
  H    3.605342425  -3.088745918  -3.204247607
  H    5.176534721  -1.240854221  -2.674211954
