31
E: -3063332.3817825774 kcal/mol
  B    0.802913657   0.399812458   1.044176444
 As    1.316031842   1.009065398  -1.044564154
  B   -0.317829944   1.591529921   0.193128988
  B   -0.924900063   0.413011488   1.372265586
  B   -1.862810485   0.770333087  -0.109446574
  B   -0.768989840   0.954933102  -1.496332046
  B    0.037481757  -0.668724159  -1.803888567
  B   -0.598751016  -1.804118509  -0.505096078
  B   -1.635525443  -0.576997306  -1.262879158
  B   -1.760443713  -0.901544240   0.491072057
  B   -0.149135420  -1.171808170   1.186226976
 As    1.460693490  -1.334588629  -0.201183446
  H    1.639779805   0.726343288   1.813582386
  H    0.391597541  -1.032278157  -2.874856077
  H   -0.981530168   1.686450219  -2.406658725
  H   -0.224261638   2.751440798   0.427334015
  H   -1.263352925   0.779204460   2.448729512
  H    0.058826763  -1.901667879   2.098722136
  H   -0.695669467  -2.964341730  -0.736280640
  H   -2.473016451  -0.906075154  -2.036146594
  H   -2.868753274   1.397592480  -0.074033297
  H   -2.693437193  -1.467873280   0.955542050
  O    4.222896712   0.394406632   0.293694894
  C    5.124987000   0.308914486  -0.807231925
  C    4.708922315   1.266103599   1.314128253
  H    6.103368822  -0.077904311  -0.487251696
  H    4.683084909  -0.381184169  -1.529472062
  H    5.266545086   1.291743713  -1.281405872
  H    3.963148442   1.268291607   2.110119870
  H    5.669765643   0.907591855   1.710909064
  H    4.839845256   2.288773109   0.930446676
