30
E: -1930095.0422715393 kcal/mol
  C   -0.469943073  -0.000526347   0.159909887
 Br   -2.401256538  -0.001389167   0.127041237
  B    0.414548484  -0.893027536   1.311750335
  B    0.296616238  -1.453484584  -0.373831624
  B    1.863911681  -1.449929995   0.439332735
  B    1.942215438   0.001949948   1.482598514
  B    2.764365217   0.000617038  -0.098713470
  B    1.742585354  -0.892507023  -1.246748518
  C    0.299383123  -0.001764696  -1.295069981
  B    0.295356200   1.451903171  -0.376945837
  B    1.741784853   0.890354874  -1.248657531
  B    1.862611423   1.451500917   0.436205039
  B    0.413761256   0.895212204   1.309821795
  H   -0.199440277  -1.478507399   2.133996851
  H   -0.357453923  -0.002988554  -2.154640326
  H    2.056052451  -1.486246786  -2.220340467
  H    2.384598907  -2.478443584   0.713109870
  H    2.523212191   0.003329951   2.515776931
  H   -0.200730682   1.481944931   2.130803387
  H   -0.406566747   2.327335500  -0.738543974
  H    2.054722353   1.482335983  -2.223498951
  H    3.944087716   0.001035800  -0.209522157
  H    2.382344744   2.481111165   0.707751852
  H   -0.404505705  -2.330257561  -0.733549531
  O   -5.165366768  -0.002902758   0.132559703
  C   -5.561263985  -0.007246168   1.293018628
  H   -4.872306219  -0.009994841   2.156967501
  N   -6.866352542  -0.009622321   1.654391845
  H   -7.584542594  -0.006111351   0.942091807
  H   -7.140940575  -0.010847810   2.625590450
