37
E: -1932974.2795091155 kcal/mol
  C   -0.566466166   0.088729194   0.107505484
 Br   -2.528648057   0.229288344   0.013565110
  B    0.212420515  -0.862897804   1.285508654
  B    0.108260923  -1.413618743  -0.401903759
  B    1.645465468  -1.526120480   0.461002829
  B    1.795390177  -0.082176046   1.507967994
  B    2.665706461  -0.145240700  -0.045995823
  B    1.620404052  -0.963420556  -1.227535049
  C    0.247735894   0.029817085  -1.319533043
  B    0.316968046   1.478379175  -0.401980892
  B    1.749019196   0.815318642  -1.227462407
  B    1.854633708   1.368256459   0.460985237
  B    0.340981593   0.918391026   1.285535199
  H   -0.466451439  -1.402953670   2.088086261
  H   -0.378096481   0.074907444  -2.200756143
  H    1.921934671  -1.579183787  -2.191670856
  H    2.081275655  -2.589058561   0.751085049
  H    2.343786196  -0.120949964   2.558351403
  H   -0.252983755   1.550888260   2.087989827
  H   -0.304623814   2.403685136  -0.787736288
  H    2.136742873   1.381433012  -2.190989838
  H    3.845754855  -0.229787572  -0.117407831
  H    2.440661801   2.356703347   0.750588419
  H   -0.639457555  -2.240590811  -0.787605938
  N   -5.155655953   0.415148139  -0.105606243
  C   -5.538248548   0.125442152  -1.490745670
  C   -5.510309624   1.782867916   0.285463006
  C   -5.695798033  -0.576407172   0.829398428
  H   -5.143179619   1.974449906   1.296960937
  H   -5.032563616   2.488494026  -0.399097264
  H   -6.600991445   1.949001631   0.265039544
  H   -6.631094100   0.171506771  -1.637305212
  H   -5.063324376   0.852426663  -2.154861953
  H   -5.188574571  -0.874715964  -1.759318595
  H   -5.331444355  -0.357486025   1.836571457
  H   -6.799073530  -0.574727902   0.841359683
  H   -5.347038047  -1.571371572   0.541081283
