33
E: -1920759.8778879314 kcal/mol
  C   -0.539599067  -0.036826581   0.085034667
 Br   -2.468109496  -0.092911877  -0.019329945
  B    0.312731743  -0.900585407   1.281155264
  B    0.283612951  -1.473640638  -0.405053070
  B    1.812216279  -1.426743891   0.476693262
  B    1.809123969   0.033170106   1.512242642
  B    2.700309409   0.042359557  -0.031269383
  B    1.752790196  -0.882355618  -1.217205242
  C    0.292012116  -0.027460054  -1.335982790
  B    0.212043264   1.431002391  -0.428744825
  B    1.709095618   0.900009464  -1.231731376
  B    1.741071676   1.474290034   0.452928524
  B    0.268702046   0.888313252   1.266307439
  H   -0.323957375  -1.496015316   2.078082910
  H   -0.325452326  -0.049692492  -2.223797889
  H    2.122709514  -1.474228315  -2.171849707
  H    2.344696187  -2.440551459   0.780265162
  H    2.343672469   0.054743399   2.569777864
  H   -0.396206459   1.465572200   2.053727598
  H   -0.494313393   2.286312768  -0.828245466
  H    2.050070393   1.493877662  -2.195970192
  H    3.883374198   0.070648753  -0.089582566
  H    2.222998553   2.517886617   0.739692605
  H   -0.380595234  -2.368150387  -0.790120835
  O   -5.248942160  -0.156010953  -0.150478130
  C   -5.685809494   0.463871668  -1.360507328
  C   -5.747589262   0.518872445   1.006457939
  H   -5.359942556  -0.016728625   1.874214846
  H   -5.402499639   1.562488757   1.034266991
  H   -6.846393265   0.501434895   1.021768061
  H   -6.782529729   0.444621324  -1.432200752
  H   -5.339411559   1.505931473  -1.418938997
  H   -5.255236567  -0.110991150  -2.182086280
