34
E: -1944699.035540702 kcal/mol
  C   -0.460709621  -0.014623846  -0.079632482
 Br   -2.375705533  -0.032474328  -0.324274173
  B    0.289430007  -0.938197754   1.140171932
  B    0.372551732  -1.449188911  -0.563050808
  B    1.833498899  -1.465515432   0.426464513
  B    1.780738591  -0.043678948   1.512056838
  B    2.780985506   0.002825014   0.037569015
  B    1.905927240  -0.860277925  -1.246041332
  C    0.471760576   0.027552148  -1.436593676
  B    0.351876931   1.454674221  -0.484492568
  B    1.893635302   0.922014183  -1.198039253
  B    1.814019828   1.435297122   0.504816214
  B    0.277035479   0.850485185   1.189257732
  H   -0.412715590  -1.548771817   1.868036943
  H   -0.082574025   0.049561436  -2.365111950
  H    2.333010141  -1.425193616  -2.193085866
  H    2.325212677  -2.499485118   0.731085716
  H    2.238233555  -0.070550562   2.605080964
  H   -0.432361025   1.410761621   1.949418757
  H   -0.308731708   2.336412540  -0.903694261
  H    2.313567150   1.541724254  -2.113424801
  H    3.965521581   0.009746592   0.065972100
  H    2.293532543   2.456683590   0.865315509
  H   -0.276630962  -2.316699920  -1.028356670
  O   -5.157167042  -0.082797095  -0.650370512
  C   -5.821322976  -1.109936240  -0.664063901
  C   -7.334161215  -1.060080840  -0.617408389
  C   -5.185152510  -2.482681417  -0.733815397
  H   -4.110097424  -2.419570939  -0.565661051
  H   -5.645548419  -3.162062697  -0.008784647
  H   -5.369774109  -2.907326232  -1.728844281
  H   -7.765285908  -1.665158289  -1.422881540
  H   -7.679511036  -1.498459071   0.326948658
  H   -7.680565635  -0.029107906  -0.689506333
