32
E: -709696.731991836 kcal/mol
  B    0.722243801  -0.383645910   1.209635190
  P    1.358073467   1.166060722  -0.062959275
  B   -0.280178044   1.141832007   1.134428055
  B   -1.036558318  -0.447291112   1.379313893
  B   -1.801674896   0.756057322   0.299007063
  B   -0.540884278   1.611405367  -0.618211651
  B    0.289923186   0.396214727  -1.704069347
  B   -0.514304281  -1.216227801  -1.379578680
  B   -1.448799750   0.294782280  -1.392637263
  B   -1.784685921  -0.959853684  -0.162291230
  B   -0.252677832  -1.685135936   0.374465946
  P    1.376604878  -1.071074738  -0.664837944
  H    1.497243179  -0.609062407   2.077247131
  H    0.787588608   0.678836300  -2.740254632
  H   -0.605809771   2.743457943  -0.966395495
  H   -0.163692685   1.949639385   1.995762389
  H   -1.477891417  -0.737521704   2.440950960
  H   -0.116679198  -2.813742867   0.714487756
  H   -0.559410899  -2.022054335  -2.249325179
  H   -2.184150342   0.529576151  -2.292531867
  H   -2.796016365   1.327862277   0.600548571
  H   -2.766446354  -1.624150389  -0.193338201
  O    4.334275914   0.185911447  -0.761327127
  C    5.208733250  -0.396309219  -0.138250741
  C    6.639726170  -0.432418567  -0.635152394
  C    4.917269999  -1.125144568   1.159186770
  H    3.881481537  -0.970434388   1.461737355
  H    5.104480205  -2.197684664   1.028058710
  H    5.591882841  -0.780883348   1.951255284
  H    6.961016292  -1.471531608  -0.775154058
  H    6.724408109   0.112425435  -1.575460694
  H    7.309149919   0.006736881   0.113785703
