28
E: -695092.5217785604 kcal/mol
  B    0.482254418  -0.136865733   1.525202970
  P    1.456347129   0.926814136   0.000244865
  B   -0.285155921   1.410821350   0.918049858
  B   -1.277176630   0.036041990   1.449794023
  B   -1.744793380   0.974576906   0.000132471
  B   -0.285083193   1.411162324  -0.917503648
  B    0.482367931  -0.136291331  -1.525195860
  B   -0.567329329  -1.503324985  -0.916746468
  B   -1.277069385   0.036592237  -1.449852410
  B   -1.916489924  -0.794433052  -0.000210450
  B   -0.567393105  -1.503670990   0.916151689
  P    1.238007961  -1.377122160  -0.000205027
  H    1.123896903  -0.198310333   2.518527537
  H    1.124082829  -0.197333371  -2.518496818
  H   -0.152133969   2.406043537  -1.550141258
  H   -0.152265877   2.405477695   1.551064409
  H   -1.870187020   0.093693916   2.475002656
  H   -0.631308392  -2.504809262   1.549291907
  H   -0.631224628  -2.504225082  -1.550268025
  H   -1.870004125   0.094653798  -2.475088444
  H   -2.677028426   1.707979802   0.000228506
  H   -2.973031408  -1.332941896  -0.000344023
  O    4.316755410  -0.508312539   0.000121225
  C    5.024071147   0.489885842   0.000277691
  N    6.380070635   0.470627957   0.000184991
  H    4.609018700   1.515734887   0.000443053
  H    6.917868153   1.324870075   0.000763906
  H    6.867886497  -0.415506717   0.000308672
