29
E: -532514.2037780508 kcal/mol
  S    1.673943810  -0.024441709   0.006496231
  B    0.442147726  -0.160217589   1.598625774
  B    0.432886254  -1.575393567   0.354598437
  B    0.443774373  -0.827892847  -1.374975094
  B   -1.022747310   0.143767583  -1.518091995
  B   -1.014239413   1.488822485  -0.334210160
  B   -1.955977281   0.009099834  -0.002467542
  B   -1.037702627  -1.397756889  -0.604564918
  B   -1.038839881  -1.005021521   1.144199725
  B   -1.024280238   0.779053553   1.310988555
  B    0.458537550   1.457112463   0.637135783
  B    0.459442429   1.045536461  -1.197891140
  H    1.104398349   1.698558580  -1.943752885
  H    1.061785176  -2.551639023   0.574165514
  H   -1.538583006  -2.383310499  -1.033426130
  H   -1.512844730   0.248554208  -2.593054651
  H   -1.497801103   2.545710320  -0.571561296
  H    1.103141789   2.366568570   1.033078479
  H    1.076848726  -0.257483028   2.591030351
  H   -1.540555042  -1.713020424   1.952602469
  H   -3.141517761   0.019704842  -0.005512342
  H   -1.515051923   1.333565508   2.237258223
  H    1.079012561  -1.340401748  -2.229911200
  O    4.850174297  -0.034542874   0.009137370
  C    5.260180177   1.093985248  -0.218407104
  H    4.586468116   1.949986654  -0.422626228
  N    6.570388267   1.449184046  -0.250360796
  H    6.854349355   2.396537085  -0.452340102
  H    7.281685359   0.750289278  -0.080912327
