36
E: -535392.517839281 kcal/mol
  S    1.729892232  -1.081913946   0.158584957
  B    0.375991324  -0.830953526   1.635516902
  B   -0.080532752  -1.988729751   0.233149251
  B    0.423924414  -1.183788103  -1.380939516
  B   -0.478726069   0.326482912  -1.502216191
  B   -0.044148479   1.437226789  -0.165675022
  B   -1.545480529   0.475781509  -0.078029904
  B   -1.237699252  -1.130990797  -0.786067011
  B   -1.265797384  -0.924292310   0.991010437
  B   -0.526258432   0.662333698   1.375912094
  B    1.167260199   0.707413054   0.887192444
  B    1.199699410   0.487944826  -0.981406275
  H    2.128976504   0.868750980  -1.603216832
  H    0.059635370  -3.155058429   0.371665544
  H   -2.052716344  -1.769855938  -1.364106356
  H   -0.756539413   0.720267051  -2.586073283
  H   -0.016220465   2.615413369  -0.301860104
  H    2.074936557   1.227023924   1.435035916
  H    0.801027420  -1.269334227   2.648136444
  H   -2.101180554  -1.415715288   1.674727631
  H   -2.610706064   0.990836796  -0.154705136
  H   -0.837661202   1.294487113   2.330399863
  H    0.880453305  -1.842029778  -2.250982398
  N    4.507604543  -0.068222162   0.275145271
  C    5.134678779  -1.019057842  -0.641722907
  C    4.849153525   1.314747707  -0.060804995
  C    4.822050022  -0.378886934   1.669654392
  H    6.238423755  -1.003632971  -0.584111649
  H    4.794381788  -2.032598542  -0.404583647
  H    4.838539855  -0.783436918  -1.668258059
  H    4.304527937   1.993703998   0.601014063
  H    5.930906101   1.520105779   0.037795327
  H    4.549447490   1.522718229  -1.091608445
  H    4.475090407  -1.390617127   1.905150439
  H    5.904959164  -0.326834399   1.884452546
  H    4.303768837   0.327307268   2.324383209
