32
E: -523179.0215302694 kcal/mol
  S    1.624041815  -0.422843449   0.230795256
  B    0.260396641  -0.367298288   1.715389765
  B    0.146031603  -1.774976471   0.469012228
  B    0.409066541  -1.053268754  -1.249960886
  B   -0.880430618   0.122219250  -1.510095482
  B   -0.771682224   1.462784053  -0.324573626
  B   -1.945118060   0.140389843  -0.077902922
  B   -1.199119619  -1.393184652  -0.607363415
  B   -1.286172684  -0.989754112   1.136550289
  B   -1.022223017   0.774794468   1.311574832
  B    0.594602416   1.227639218   0.767575409
  B    0.686465509   0.802405153  -1.067041620
  H    1.480873127   1.344898542  -1.754390574
  H    0.605104239  -2.831579819   0.737348800
  H   -1.801734677  -2.298699446  -1.080351629
  H   -1.259018756   0.289763926  -2.621049806
  H   -1.074230647   2.575799656  -0.598175974
  H    1.333694481   2.032280898   1.219599703
  H    0.790021253  -0.551250575   2.756331863
  H   -1.950273007  -1.610349194   1.898223262
  H   -3.110760499   0.329097617  -0.180633610
  H   -1.501432372   1.402688941   2.195813946
  H    1.031835302  -1.661535889  -2.050253120
  O    4.790414450  -0.930140642   0.494239368
  C    5.374976070  -1.220297124  -0.771832205
  C    4.795879888  -2.064899578   1.354643094
  H    4.322972144  -1.756717909   2.289636402
  H    4.228407649  -2.900576955   0.916428799
  H    5.821958589  -2.404051496   1.559971074
  H    6.431390917  -1.510206006  -0.664647185
  H    4.836349642  -2.033649077  -1.282827544
  H    5.307633906  -0.309028126  -1.368557491
