35
E: -571665.9428482394 kcal/mol
  S    1.929532845  -0.008883853   0.068806035
  B    0.649295593  -0.148870347   1.619129043
  B    0.664447401  -1.549876364   0.363031262
  B    0.736120347  -0.788662037  -1.355676315
  B   -0.715297828   0.198385613  -1.536700448
  B   -0.729020426   1.532873528  -0.340720430
  B   -1.696151034   0.060512467  -0.052465276
  B   -0.774911854  -1.350998910  -0.638474138
  B   -0.825809155  -0.974057782   1.112571072
  B   -0.797344202   0.808131528   1.296543266
  B    0.712411323   1.478001855   0.675561770
  B    0.765918089   1.082288213  -1.163246597
  H    1.441657644   1.734120247  -1.881671438
  H    1.277813841  -2.534176944   0.593611663
  H   -1.272184781  -2.327217522  -1.092078845
  H   -1.170997375   0.317676946  -2.625086805
  H   -1.194147200   2.596634537  -0.583346375
  H    1.356523893   2.373962292   1.100074334
  H    1.253882224  -0.262043566   2.628356162
  H   -1.358528591  -1.684381726   1.898917158
  H   -2.880662496   0.083624383  -0.092115093
  H   -1.309775885   1.359426235   2.213031735
  H    1.392310455  -1.301070229  -2.195243058
  C    4.617005991  -0.443933627   2.071666511
  C    5.071016491  -1.116564731   0.934722508
  C    5.374064532  -0.401151259  -0.225775215
  C    5.221851029   0.986844786  -0.250434165
  C    4.769868413   1.659977502   0.887003999
  C    4.467786976   0.944775803   2.048085583
  H    5.185289842  -2.196371599   0.952487998
  H    5.725374417  -0.924957279  -1.109979043
  H    5.452293225   1.542849683  -1.154443364
  H    4.648280563   2.738896156   0.867954476
  H    4.109287308   1.467794510   2.929512457
  H    4.374537379  -1.001055512   2.971691566
