36
E: -535389.9280191043 kcal/mol
  S    1.704847593  -0.102909392   0.086463449
  B    0.400956922  -0.192190769   1.624253085
  B    0.390453633  -1.604648183   0.382908843
  B    0.505659759  -0.864667856  -1.343618970
  B   -0.913418477   0.162814662  -1.551270598
  B   -0.903163676   1.509556208  -0.368185338
  B   -1.916431659   0.068584376  -0.077667894
  B   -1.029497904  -1.375448970  -0.638493782
  B   -1.091675894  -0.979405828   1.108284612
  B   -1.013074970   0.803159043   1.275575697
  B    0.523044389   1.423670362   0.666896467
  B    0.587521287   1.008943891  -1.169350055
  H    1.289446096   1.633705492  -1.886573421
  H    0.973583009  -2.603617483   0.630081442
  H   -1.548773348  -2.341519803  -1.089099409
  H   -1.351632017   0.284844929  -2.646508271
  H   -1.333832987   2.583808147  -0.626992046
  H    1.186071818   2.306376382   1.090833395
  H    0.990720226  -0.313761820   2.642088063
  H   -1.654442355  -1.665806602   1.894672724
  H   -3.099352673   0.125890824  -0.132755719
  H   -1.520376102   1.378500095   2.179859049
  H    1.157605131  -1.404459492  -2.169302128
  N    4.918003782  -0.245325608   0.234316120
  C    5.416428968  -1.236793077  -0.717893038
  C    5.760612346   0.949916510   0.250924813
  C    4.777992410  -0.818589486   1.571540690
  H    6.423775069  -1.613506248  -0.456331664
  H    4.730585652  -2.089544380  -0.749690182
  H    5.463857316  -0.791847034  -1.716120438
  H    5.332331305   1.688685675   0.935352270
  H    6.797970578   0.738014622   0.573630204
  H    5.794355192   1.384314406  -0.752742494
  H    4.099661491  -1.677784423   1.532613377
  H    5.740178364  -1.161468765   1.996491291
  H    4.351671726  -0.070894403   2.248368854
