33
E: -547118.5646524325 kcal/mol
  S    1.683727476   0.078850080   0.156926363
  B    0.371492568  -0.105170120   1.678352617
  B    0.484713770  -1.519486717   0.438254969
  B    0.563981691  -0.772402778  -1.288485985
  B   -0.927919257   0.142605562  -1.515948697
  B   -1.035953263   1.487398231  -0.336656538
  B   -1.938248331  -0.027103309  -0.053713498
  B   -0.935909207  -1.398295564  -0.601416406
  B   -1.048860681  -1.005605148   1.143738917
  B   -1.110453637   0.778210991   1.307156673
  B    0.380434784   1.513443268   0.715587402
  B    0.498987944   1.100032840  -1.115765639
  H    1.158676144   1.776388589  -1.827477047
  H    1.137822371  -2.470835496   0.693872952
  H   -1.374570975  -2.402022064  -1.055260746
  H   -1.360435652   0.229298335  -2.616879783
  H   -1.545058510   2.525037028  -0.603372332
  H    0.967264645   2.446383226   1.143740538
  H    0.953505430  -0.178959791   2.704321677
  H   -1.567444933  -1.731718305   1.924917297
  H   -3.121283735  -0.060841926  -0.123168923
  H   -1.672593384   1.314103484   2.203148868
  H    1.265207824  -1.260214728  -2.105973662
  O    4.885925401   0.207608745   0.307759797
  C    5.567529160   0.926982301  -0.404950955
  C    7.080909162   0.931784798  -0.313066533
  C    4.946947009   1.856546091  -1.432699091
  H    5.332951570   2.875248109  -1.316224552
  H    5.224958955   1.525490901  -2.440630400
  H    3.860494051   1.859859236  -1.341928658
  H    7.433643011   1.933854037  -0.041975652
  H    7.414376859   0.207739615   0.430462752
  H    7.520010741   0.695368477  -1.289551726
