33
E: -547120.2082637482 kcal/mol
  S    1.732114236  -0.844580600   0.312283830
  B    0.388816536  -0.305156878   1.718683400
  B    0.012840852  -1.830711832   0.688661617
  B    0.425135732  -1.445641912  -1.103430678
  B   -0.604069949  -0.095909282  -1.583796207
  B   -0.242737059   1.359527853  -0.604103597
  B   -1.657924273   0.344252271  -0.211898302
  B   -1.224592002  -1.365271238  -0.481274766
  B   -1.245904358  -0.694191395   1.179104320
  B   -0.638711264   0.989944849   1.103403983
  B    1.039756638   1.030072580   0.561733867
  B    1.062687925   0.324543945  -1.185304964
  H    1.950365170   0.593745371  -1.916150192
  H    0.250932739  -2.903649460   1.124994725
  H   -1.991012991  -2.196535966  -0.838881529
  H   -0.931551886  -0.027676082  -2.721634753
  H   -0.315750505   2.457191137  -1.048684419
  H    1.912862856   1.739218864   0.921914707
  H    0.862407967  -0.425766335   2.795283819
  H   -2.027442631  -1.050236590   1.996854994
  H   -2.763774109   0.735521663  -0.384327485
  H   -0.990048633   1.827238144   1.866585250
  H    0.920917051  -2.277074341  -1.782415575
  O    4.497301076   0.324802808  -0.116172861
  C    5.163514327   1.264556990  -0.523480131
  C    6.678495737   1.226315497  -0.493920974
  C    4.524913035   2.519876834  -1.084392538
  H    4.961239854   3.414191479  -0.625706905
  H    4.736351382   2.581679512  -2.159280169
  H    3.446529300   2.504144283  -0.929601898
  H    7.047117058   1.984972436   0.207420777
  H    7.025311106   0.241138882  -0.181243374
  H    7.088738080   1.479044504  -1.478129979
