35
E: -571665.798678088 kcal/mol
  S    1.889524779   0.121417467   0.352412927
  B    0.447027105  -0.081171799   1.744259151
  B    0.681105746  -1.483574894   0.511863672
  B    0.913516474  -0.725387956  -1.194094240
  B   -0.556355179   0.183233648  -1.551997898
  B   -0.779663337   1.518999020  -0.378335439
  B   -1.695584145  -0.001507471  -0.190485411
  B   -0.639734465  -1.364283800  -0.652218695
  B   -0.914304795  -0.985021903   1.077497567
  B   -1.000755886   0.797009013   1.246993059
  B    0.534249166   1.543780221   0.799417350
  B    0.822625976   1.145469983  -1.016532594
  H    1.543557195   1.829055799  -1.657381960
  H    1.314705580  -2.433079205   0.820578564
  H   -1.029454947  -2.367395936  -1.150330353
  H   -0.886987049   0.275177127  -2.687224401
  H   -1.268370542   2.555674761  -0.683702507
  H    1.076217757   2.474911727   1.286514917
  H    0.934437640  -0.159753168   2.818641933
  H   -1.497997211  -1.719892445   1.802546276
  H   -2.867125407  -0.041262603  -0.367890161
  H   -1.646065972   1.322961125   2.091662023
  H    1.691052066  -1.203990076  -1.945509970
  C    4.791270475  -0.481137082   2.013774069
  C    5.003799270  -1.166299216   0.815257501
  C    5.165097846  -0.456018894  -0.376583791
  C    5.113938142   0.939831254  -0.369994592
  C    4.901558360   1.625035460   0.828525317
  C    4.740236484   0.914728925   2.020410001
  H    5.039357533  -2.251615857   0.809350676
  H    5.326668764  -0.989339690  -1.308655205
  H    5.235611683   1.492235730  -1.297011961
  H    4.857745479   2.710079938   0.833112889
  H    4.570102462   1.447735966   2.951154502
  H    4.660731951  -1.034102167   2.939278784
