35
E: -1828730.695875648 kcal/mol
 Se    1.978817818   0.124978968   0.365009571
  B    0.367461775  -0.085744775   1.751397573
  B    0.604622900  -1.505208849   0.503750937
  B    0.839306076  -0.737399718  -1.223076378
  B   -0.626669018   0.180961979  -1.563689228
  B   -0.850231100   1.517247922  -0.389166782
  B   -1.763383328  -0.004188491  -0.200769639
  B   -0.709425131  -1.367490974  -0.663545508
  B   -0.983915014  -0.988265577   1.067263199
  B   -1.070851320   0.794674787   1.236994038
  B    0.455151379   1.559118006   0.795063537
  B    0.746700998   1.156264902  -1.043205599
  H    1.428361266   1.856494160  -1.710287999
  H    1.197052675  -2.482225211   0.811796200
  H   -1.107909217  -2.367655740  -1.161738136
  H   -0.966697571   0.272027259  -2.696682723
  H   -1.348031786   2.550108388  -0.694554059
  H    0.953110828   2.513352429   1.286496384
  H    0.809882244  -0.168128913   2.845901064
  H   -1.575649313  -1.721078667   1.788618767
  H   -2.935122029  -0.044274983  -0.377786808
  H   -1.724187614   1.318233831   2.077608721
  H    1.579383203  -1.230596468  -2.003799662
  C    4.937103860  -0.476079328   2.036936714
  C    5.148783030  -1.161860500   0.838160718
  C    5.310169493  -0.451574424  -0.354190388
  C    5.260074435   0.944611595  -0.347734133
  C    5.048256251   1.630394190   0.850994001
  C    4.886677910   0.920233113   2.043306552
  H    5.186544945  -2.247015739   0.832902763
  H    5.473611436  -0.984949827  -1.285851066
  H    5.384814928   1.496947363  -1.274346057
  H    5.008016356   2.715541511   0.855787560
  H    4.720003163   1.453420589   2.974505092
  H    4.809904470  -1.028369806   2.963232775
