29
E: -1789579.0812134095 kcal/mol
 Se    1.822281939  -0.041081549   0.010760516
  B    0.417932736  -0.169523679   1.619534455
  B    0.403289499  -1.601861111   0.360419946
  B    0.420070628  -0.845055356  -1.390139120
  B   -1.034600448   0.142856987  -1.518833222
  B   -1.021253307   1.488222862  -0.334227691
  B   -1.967927544   0.011866632  -0.003560672
  B   -1.057615279  -1.399605135  -0.605149766
  B   -1.059113784  -1.006692058   1.144828180
  B   -1.036601420   0.778278809   1.311667227
  B    0.443498989   1.466937382   0.646543487
  B    0.444757012   1.050374283  -1.210331441
  H    1.052202743   1.718595586  -1.975473292
  H    0.985436181  -2.606179226   0.586230964
  H   -1.570602074  -2.379704065  -1.033445900
  H   -1.531508795   0.249745204  -2.590835628
  H   -1.508410252   2.543913961  -0.571209708
  H    1.050197832   2.398425518   1.053604331
  H    1.009180778  -0.271862132   2.638883887
  H   -1.573236347  -1.710056910   1.950000858
  H   -3.153460168   0.027374302  -0.007988133
  H   -1.534466119   1.333381439   2.234241407
  H    1.012104134  -1.373490864  -2.267200573
  O    4.983414544  -0.058167484   0.017541038
  C    5.349320875   1.085821627  -0.214284070
  H    4.641462804   1.915722759  -0.410273822
  N    6.642932873   1.489566978  -0.261788861
  H    6.886833787   2.448251175  -0.463073015
  H    7.382902181   0.818859064  -0.101190381
