32
E: -1780243.6674463672 kcal/mol
 Se    1.747152696  -0.439137316   0.239356268
  B    0.215072324  -0.357924781   1.729493408
  B    0.097000733  -1.781304947   0.466927282
  B    0.362858197  -1.050368884  -1.272654814
  B   -0.918525745   0.135500805  -1.515478832
  B   -0.806833825   1.475301321  -0.328656651
  B   -1.980239416   0.153915751  -0.081404411
  B   -1.238196758  -1.380117231  -0.612160495
  B   -1.323827158  -0.977532831   1.132752435
  B   -1.057333643   0.787140700   1.308248538
  B    0.554803744   1.255387341   0.769456316
  B    0.645935373   0.826429738  -1.087294672
  H    1.403681715   1.392325563  -1.798060923
  H    0.510121826  -2.857182510   0.735639790
  H   -1.850501387  -2.279474266  -1.084654970
  H   -1.305689095   0.303996171  -2.623998344
  H   -1.115996029   2.587530015  -0.601081928
  H    1.255815692   2.090549999   1.228162116
  H    0.702318287  -0.536922733   2.792781359
  H   -1.996163735  -1.593407623   1.891461421
  H   -3.146799950   0.340413560  -0.181657892
  H   -1.542632451   1.414464641   2.190238322
  H    0.942986535  -1.665377694  -2.100488257
  O    4.909552434  -0.960318372   0.513583827
  C    5.476326210  -1.252123364  -0.762183282
  C    4.917988034  -2.098899981   1.371882311
  H    4.472883809  -1.786322944   2.319004936
  H    4.329146934  -2.925882397   0.944417727
  H    5.943449292  -2.452667148   1.551705122
  H    6.524825007  -1.570246862  -0.666191560
  H    4.911759360  -2.044824892  -1.277427797
  H    5.428980993  -0.332464827  -1.348239351
