36
E: -1792454.9087245718 kcal/mol
 Se    1.808444318  -0.107534218   0.096625981
  B    0.323444439  -0.187797955   1.637436854
  B    0.316613538  -1.617141926   0.381258208
  B    0.443362895  -0.868689976  -1.365297213
  B   -0.966198629   0.170892964  -1.564247633
  B   -0.959560222   1.518443988  -0.380709179
  B   -1.974872677   0.078628601  -0.095114585
  B   -1.089791746  -1.367763607  -0.651521447
  B   -1.160173310  -0.971332117   1.095611369
  B   -1.079319801   0.811913952   1.263382369
  B    0.454576127   1.447559697   0.669430331
  B    0.528795312   1.027184508  -1.188673333
  H    1.194764968   1.670266788  -1.925086512
  H    0.852061842  -2.641655189   0.635297575
  H   -1.617028004  -2.329374316  -1.103877586
  H   -1.407689148   0.293855466  -2.658552771
  H   -1.396134050   2.590227792  -0.641748440
  H    1.075145962   2.355891539   1.105607062
  H    0.863633336  -0.310671450   2.683230232
  H   -1.736206788  -1.653928104   1.876385779
  H   -3.157403597   0.138817929  -0.156884421
  H   -1.599244989   1.386631788   2.161451292
  H    1.056709062  -1.421250238  -2.212993851
  N    5.027289274  -0.267831030   0.269696001
  C    5.506898669  -1.246977746  -0.706291496
  C    5.843287782   0.946962650   0.254876732
  C    4.961805655  -0.847563038   1.611373854
  H    6.533291790  -1.598592074  -0.489455649
  H    4.841581130  -2.116364052  -0.708210429
  H    5.499428060  -0.800457298  -1.704906311
  H    5.425892829   1.674464794   0.957735569
  H    6.896285661   0.756957212   0.536320066
  H    5.828174916   1.383792552  -0.748100765
  H    4.300034787  -1.720443983   1.601362263
  H    5.950017720  -1.170836958   1.987530154
  H    4.553744889  -0.109690946   2.309618928
