24
Cycle: 0 E: -15776.801138256144 kcal/mol
  C    0.712645325   1.120995701   0.060540783
  H    1.357841649   1.986399167   0.127737169
  C    1.258235731  -0.159251901   0.124233518
  H    2.324954277  -0.287099878   0.246743035
  C    0.426884963  -1.274526662   0.042650428
  H    0.850444649  -2.268432680   0.094749952
  C   -0.949577845  -1.110074058  -0.100313595
  H   -1.594455696  -1.976273703  -0.163713480
  C   -1.495525640   0.171050561  -0.161546018
  H   -2.563782791   0.299221149  -0.273703115
  C   -0.663827601   1.286642887  -0.083401433
  H   -1.086900697   2.281000204  -0.132886135
  C    1.987760455   1.109757200   3.710319581
  H    2.632605579   1.975940943   3.774070299
  C    2.533713581  -0.171393899   3.771839314
  H    3.601920465  -0.299540949   3.884583533
  C    1.702064101  -1.286993999   3.693188885
  H    2.125145808  -2.281346434   3.742842548
  C    0.325662540  -1.121358970   3.548472137
  H   -0.319440056  -1.986769214   3.480839505
  C   -0.219897331   0.158873777   3.484506309
  H   -1.286525365   0.286702990   3.361327548
  C    0.611379619   1.274154539   3.566577253
  H    0.187854737   2.268059573   3.514208323
24
Cycle: 1 E: -15777.302545455053 kcal/mol
  C    0.715166072   1.121191659   0.082122659
  H    1.361727331   1.988617386   0.158138783
  C    1.261362331  -0.160345882   0.136298830
  H    2.330816549  -0.289205488   0.260466001
  C    0.430035362  -1.276165063   0.043678121
  H    0.854811847  -2.273148227   0.089066344
  C   -0.947135899  -1.110431021  -0.100843517
  H   -1.593617885  -1.978522163  -0.172529417
  C   -1.493533923   0.171915415  -0.152627531
  H   -2.564549685   0.301138068  -0.266087287
  C   -0.661814039   1.287734933  -0.063406220
  H   -1.086254758   2.285099048  -0.105527527
  C    1.986066681   1.111061305   3.690902936
  H    2.632970268   1.979922974   3.747771935
  C    2.531961897  -0.170509924   3.762923616
  H    3.603084983  -0.298367080   3.876981943
  C    1.699525418  -1.287294144   3.693121870
  H    2.123623986  -2.284042037   3.750612117
  C    0.322271942  -1.122499860   3.546887265
  H   -0.324734285  -1.990731389   3.485543027
  C   -0.223248562   0.158378067   3.472423060
  H   -1.292773921   0.285896774   3.347595933
  C    0.608888271   1.274849640   3.545541489
  H    0.184530476   2.271193354   3.484811913
24
Cycle: 2 E: -15777.623665848812 kcal/mol
  C    0.717894265   1.120989488   0.099938365
  H    1.365666749   1.989889119   0.183034534
  C    1.264334436  -0.161461027   0.146061119
  H    2.335987703  -0.291422267   0.271206841
  C    0.432856427  -1.277110749   0.044598979
  H    0.858581373  -2.276550005   0.084278602
  C   -0.944650772  -1.110560277  -0.100710495
  H   -1.592376816  -1.980150844  -0.179018852
  C   -1.491346909   0.172580203  -0.144514800
  H   -2.564602668   0.302729761  -0.258676690
  C   -0.659513320   1.288417304  -0.046431334
  H   -1.084987886   2.288194339  -0.082299249
  C    1.984015478   1.112074267   3.674411591
  H    2.632531260   1.983093696   3.725430721
  C    2.529944655  -0.169643658   3.754732437
  H    3.603459032  -0.297197112   3.869443716
  C    1.696990886  -1.287236058   3.692413001
  H    2.121928502  -2.285860096   3.756096129
  C    0.319223468  -1.123096865   3.545493680
  H   -0.329303358  -1.993579822   3.489503584
  C   -0.226417695   0.157915923   3.462726292
  H   -1.298332874   0.285020615   3.336984599
  C    0.606216722   1.275244780   3.528265015
  H    0.181081798   2.273455630   3.460898560
24
Cycle: 3 E: -15778.021128358083 kcal/mol
  C    0.725150624   1.119473527   0.129844931
  H    1.375498271   1.990574316   0.223657934
  C    1.271387326  -0.164051947   0.161638991
  H    2.347031770  -0.296047912   0.286492038
  C    0.439710855  -1.279129815   0.046898946
  H    0.866800473  -2.282852897   0.076306379
  C   -0.938251796  -1.109851370  -0.097359595
  H   -1.588982807  -1.981412015  -0.185647554
  C   -1.484483749   0.174353037  -0.126915849
  H   -2.561725476   0.306697514  -0.240400929
  C   -0.652280671   1.288947202  -0.015504337
  H   -1.079109418   2.292980867  -0.040142443
  C    1.977231554   1.113694327   3.643959138
  H    2.628200137   1.988613233   3.684156869
  C    2.523698393  -0.167262188   3.736719369
  H    3.601615424  -0.293816781   3.850430557
  C    1.690696630  -1.286095373   3.688137917
  H    2.117836851  -2.287644101   3.761082765
  C    0.312037439  -1.123989622   3.542773475
  H   -0.338916599  -1.998449687   3.496723169
  C   -0.234041587   0.156657395   3.447567506
  H   -1.310349909   0.282803155   3.322451104
  C    0.598728567   1.275172297   3.499196112
  H    0.171698153   2.276373184   3.421799852
24
Cycle: 4 E: -15778.184645536605 kcal/mol
  C    0.733949573   1.117690073   0.146836161
  H    1.386764369   1.989788245   0.245395205
  C    1.278916765  -0.166827493   0.169396670
  H    2.357228032  -0.301539503   0.291748672
  C    0.445350386  -1.279183499   0.048752712
  H    0.872854695  -2.285787077   0.071473035
  C   -0.932401421  -1.109740931  -0.092051183
  H   -1.584883826  -1.982898215  -0.184554417
  C   -1.478252230   0.175001101  -0.112536433
  H   -2.558269554   0.308916425  -0.223418940
  C   -0.644570852   1.289140195   0.004777648
  H   -1.071847620   2.296036055  -0.012589900
  C    1.969985571   1.115366560   3.624056724
  H    2.622277157   1.992921543   3.657304882
  C    2.517607313  -0.165327288   3.721580215
  H    3.598632803  -0.291145938   3.832128336
  C    1.684766487  -1.284912017   3.681691730
  H    2.113458236  -2.288448625   3.758020438
  C    0.305751666  -1.123521139   3.540548359
  H   -0.346478090  -2.000684545   3.500930770
  C   -0.241931469   0.155975071   3.440552916
  H   -1.321448175   0.280861530   3.318485302
  C    0.590311625   1.275521271   3.483312864
  H    0.161409015   2.278534545   3.402024578
24
Cycle: 5 E: -15778.262525426895 kcal/mol
  C    0.740932280   1.116333065   0.156721475
  H    1.395670063   1.989551598   0.256506145
  C    1.285785523  -0.168573230   0.173340304
  H    2.366685907  -0.303068279   0.292149990
  C    0.452820605  -1.283586997   0.051293997
  H    0.880315961  -2.292652038   0.069527973
  C   -0.926589099  -1.108387550  -0.084950070
  H   -1.582985418  -1.981157978  -0.178578605
  C   -1.470361936   0.177517897  -0.099303375
  H   -2.552644512   0.313527241  -0.206596167
  C   -0.636268591   1.289197798   0.019420918
  H   -1.063566824   2.298476498   0.006911513
  C    1.962099925   1.116443155   3.608748001
  H    2.615101772   1.996326623   3.636604839
  C    2.510916504  -0.162871684   3.707970568
  H    3.594641873  -0.287479352   3.814551494
  C    1.679197739  -1.283752636   3.674805025
  H    2.110747183  -2.288297059   3.752324902
  C    0.298351009  -1.125566908   3.538786203
  H   -0.354551531  -2.005147967   3.504196935
  C   -0.249531107   0.154780091   3.437074491
  H   -1.331671789   0.279526916   3.318937301
  C    0.582367240   1.275053425   3.473088478
  H    0.151717678   2.279543714   3.390334008
24
Cycle: 6 E: -15778.305698017743 kcal/mol
  C    0.751464436   1.114391021   0.163216933
  H    1.408675527   1.987799624   0.262487965
  C    1.294330845  -0.171534941   0.174635054
  H    2.377001112  -0.308864936   0.288657220
  C    0.458435289  -1.283210862   0.053180320
  H    0.885494380  -2.294207694   0.067568392
  C   -0.920670626  -1.108631407  -0.077122378
  H   -1.578449096  -1.982433671  -0.169927318
  C   -1.463689640   0.177722825  -0.086452695
  H   -2.547850454   0.315054934  -0.189098554
  C   -0.627268891   1.289229019   0.031680151
  H   -1.054174211   2.300431641   0.023321155
  C    1.953636403   1.118323980   3.596627612
  H    2.606983533   2.000035664   3.620447975
  C    2.504234928  -0.161000926   3.694126514
  H    3.590147462  -0.284905091   3.795321116
  C    1.673067522  -1.282559510   3.665860228
  H    2.106049321  -2.288328692   3.741755135
  C    0.291924277  -1.124639741   3.536769943
  H   -0.361292981  -2.006086542   3.505975996
  C   -0.258362526   0.154406038   3.436752670
  H   -1.342850360   0.277782021   3.324111767
  C    0.572483005   1.275743031   3.467695604
  H    0.139861203   2.281220561   3.386275537
24
Cycle: 7 E: -15778.316134065486 kcal/mol
  C    0.757565053   1.113300300   0.164102454
  H    1.416050130   1.986673260   0.261521874
  C    1.299439769  -0.173095699   0.173659301
  H    2.382925019  -0.311404788   0.284222902
  C    0.462291614  -1.284029249   0.054483426
  H    0.888831790  -2.295878514   0.067425048
  C   -0.917058650  -1.108522399  -0.071607088
  H   -1.576079784  -1.982300635  -0.162504142
  C   -1.459159122   0.178254773  -0.079099607
  H   -2.544093802   0.316473645  -0.178402989
  C   -0.621518836   1.289191666   0.036753101
  H   -1.047935906   2.301228157   0.029934044
  C    1.948209029   1.119347012   3.591412900
  H    2.601428564   2.001904219   3.613573190
  C    2.499937838  -0.159734231   3.686338823
  H    3.586824786  -0.283080547   3.783845883
  C    1.669385773  -1.281834688   3.660043356
  H    2.103476260  -2.287901957   3.733802893
  C    0.287726253  -1.124657346   3.535637726
  H   -0.365349367  -2.006972155   3.506433161
  C   -0.263720609   0.154093119   3.438176455
  H   -1.349240679   0.276897683   3.329328764
  C    0.566483056   1.275998337   3.467081256
  H    0.132762278   2.281786382   3.387703614
24
Cycle: 8 E: -15778.327716447586 kcal/mol
  C    0.767506428   1.111537101   0.164077407
  H    1.427876193   1.984602643   0.257753480
  C    1.307746368  -0.175591410   0.171188975
  H    2.392206868  -0.315379923   0.275841829
  C    0.468552983  -1.285396250   0.056613662
  H    0.894052845  -2.298311124   0.067622816
  C   -0.911191918  -1.108370572  -0.062326388
  H   -1.572063844  -1.981840952  -0.149419511
  C   -1.451743992   0.179085618  -0.067418569
  H   -2.537578003   0.318678060  -0.161020119
  C   -0.612102484   1.289098783   0.043839948
  H   -1.037548127   2.302164505   0.039069614
  C    1.939314789   1.121002251   3.584105849
  H    2.592077277   2.004650296   3.604026068
  C    2.492892250  -0.157696959   3.674044605
  H    3.580987671  -0.280120284   3.765362135
  C    1.663387752  -1.280657132   3.650356366
  H    2.099147907  -2.286904032   3.720010717
  C    0.280925345  -1.124664992   3.533773123
  H   -0.371659268  -2.008111075   3.506733920
  C   -0.272411610   0.153623444   3.441280265
  H   -1.359234623   0.275496308   3.338816287
  C    0.556709435   1.276426221   3.467463999
  H    0.121330217   2.282415819   3.392069867
24
Cycle: 9 E: -15778.341946417766 kcal/mol
  C    0.783386427   1.108675451   0.163171678
  H    1.446568349   1.980996361   0.250386077
  C    1.320980257  -0.179598140   0.166692264
  H    2.406630059  -0.321668501   0.261665496
  C    0.478561383  -1.287666905   0.060058785
  H    0.902271173  -2.301974967   0.068211624
  C   -0.901764420  -1.108117843  -0.047203636
  H   -1.565428669  -1.980814854  -0.127754528
  C   -1.439754662   0.180427044  -0.048785454
  H   -2.526652388   0.322194940  -0.133045003
  C   -0.596941300   1.288910956   0.054555066
  H   -1.020648236   2.303333565   0.052813708
  C    1.924982106   1.123658382   3.573117898
  H    2.576764098   2.008809820   3.589762567
  C    2.481479064  -0.154370239   3.654587821
  H    3.571117876  -0.275248703   3.735907543
  C    1.653732319  -1.278718852   3.634663632
  H    2.092045879  -2.284933370   3.697360339
  C    0.270039269  -1.124727671   3.530671297
  H   -0.381563538  -2.009701511   3.506805886
  C   -0.286235850   0.152863415   3.446629376
  H   -1.374743134   0.273235422   3.354479983
  C    0.541115751   1.277080615   3.468863982
  H    0.103238646   2.283091930   3.400249945
24
Cycle: 10 E: -15778.35875676976 kcal/mol
  C    0.806533474   1.104468722   0.160972437
  H    1.473557779   1.975416877   0.238253551
  C    1.340164555  -0.185462262   0.159595139
  H    2.427058295  -0.330893387   0.240201598
  C    0.493051723  -1.290830811   0.065180605
  H    0.913987741  -2.306848219   0.069419777
  C   -0.887885103  -1.107762634  -0.024785611
  H   -1.555272386  -1.979110292  -0.095283124
  C   -1.422105784   0.182338646  -0.021619697
  H   -2.510083938   0.327225679  -0.092013595
  C   -0.574719667   1.288624887   0.069560417
  H   -0.995684988   2.304722446   0.071967176
  C    1.903972085   1.127563488   3.557802346
  H    2.554046802   2.014658316   3.570007158
  C    2.464654789  -0.149547672   3.626433346
  H    3.556043825  -0.268120259   3.693100951
  C    1.639494056  -1.275869131   3.611541666
  H    2.081169929  -2.281752245   3.663684840
  C    0.254372687  -1.124607430   3.525958575
  H   -0.395558381  -2.011528083   3.506410255
  C   -0.306271772   0.151691956   3.454750414
  H   -1.396743751   0.269657522   3.377730981
  C    0.518362731   1.278005784   3.471657204
  H    0.077035756   2.283694443   3.413339935
24
Cycle: 11 E: -15778.375987239366 kcal/mol
  C    0.836435791   1.098748143   0.157218605
  H    1.508152176   1.967759556   0.220809570
  C    1.365027470  -0.193249985   0.149760267
  H    2.453151868  -0.342472771   0.211119811
  C    0.512580574  -1.296347096   0.072223367
  H    0.929671025  -2.314455502   0.071539063
  C   -0.869259141  -1.106997568   0.005407251
  H   -1.541881420  -1.975883541  -0.051304026
  C   -1.397932338   0.185354909   0.014493946
  H   -2.486822904   0.334621367  -0.037308530
  C   -0.545024916   1.288092311   0.088895439
  H   -0.962109352   2.306247918   0.096506622
  C    1.875858636   1.132699204   3.538254737
  H    2.523386215   2.022270752   3.545020552
  C    2.441683815  -0.142473456   3.589354519
  H    3.534907147  -0.257630835   3.636651941
  C    1.620427773  -1.271709834   3.580565580
  H    2.066945454  -2.276579028   3.618373806
  C    0.233029113  -1.125562153   3.519262723
  H   -0.414466404  -2.014935950   3.505018365
  C   -0.332240677   0.150014247   3.465598023
  H   -1.424714150   0.265289576   3.408569691
  C    0.488944745   1.278946696   3.476051644
  H    0.043429955   2.283989383   3.431783378
24
Cycle: 12 E: -15778.3900918959 kcal/mol
  C    0.869609015   1.092449113   0.151866921
  H    1.546180765   1.958853679   0.199846332
  C    1.392018888  -0.201980169   0.138233183
  H    2.480586000  -0.356402953   0.178257393
  C    0.532964835  -1.300431333   0.079986710
  H    0.945626365  -2.320459485   0.074322168
  C   -0.848698306  -1.106472134   0.038785166
  H   -1.525667095  -1.973033274  -0.002127302
  C   -1.371766699   0.188056597   0.053737302
  H   -2.460955135   0.341815002   0.022513628
  C   -0.512582920   1.287676633   0.109015511
  H   -0.925169635   2.307751785   0.121900733
  C    1.845195410   1.138533155   3.518065440
  H    2.489612566   2.030550486   3.519438845
  C    2.416657723  -0.135326716   3.549349476
  H    3.511104500  -0.246867894   3.575474335
  C    1.599280553  -1.267349490   3.546471173
  H    2.049618968  -2.271135467   3.568021451
  C    0.211124577  -1.124862221   3.511695632
  H   -0.433402898  -2.016610140   3.502741594
  C   -0.360454061   0.147966920   3.477908814
  H   -1.454460802   0.259031982   3.442792419
  C    0.456338526   1.280096770   3.481967592
  H    0.006419316   2.283885499   3.453601826
24
Cycle: 13 E: -15778.397043508892 kcal/mol
  C    0.880918264   1.090180072   0.147630408
  H    1.558961182   1.955530258   0.189020283
  C    1.401257231  -0.205053806   0.132783568
  H    2.489684397  -0.361028597   0.164949973
  C    0.540170598  -1.302359496   0.082747168
  H    0.951081133  -2.322887694   0.076014449
  C   -0.841472001  -1.106239181   0.050957297
  H   -1.519971969  -1.971645026   0.016644157
  C   -1.362376045   0.189127746   0.067005915
  H   -2.451333118   0.344514036   0.043347752
  C   -0.501170277   1.287441942   0.114173250
  H   -0.912027597   2.307993406   0.128162202
  C    1.834408261   1.140577113   3.513104911
  H    2.477551970   2.033278872   3.513506727
  C    2.407698375  -0.132569221   3.536236825
  H    3.502248891  -0.242717632   3.554920726
  C    1.591836696  -1.265660497   3.534250921
  H    2.043570944  -2.268729317   3.549200586
  C    0.203276114  -1.124948450   3.508782486
  H   -0.439950038  -2.017414873   3.500843499
  C   -0.370109506   0.147277203   3.483204830
  H   -1.464289705   0.257047563   3.455824463
  C    0.445233668   1.280440204   3.486196473
  H   -0.006017013   2.283581720   3.464357475
24
Cycle: 14 E: -15778.406219015551 kcal/mol
  C    0.891048376   1.088063113   0.141444389
  H    1.570168340   1.952273938   0.175662080
  C    1.409654260  -0.207844530   0.126312686
  H    2.497650753  -0.364931663   0.150795230
  C    0.546988366  -1.304520647   0.085339542
  H    0.955854473  -2.325360640   0.078227627
  C   -0.834693314  -1.106090802   0.062726432
  H   -1.514464584  -1.970143650   0.035572529
  C   -1.353616585   0.190044720   0.078877255
  H   -2.442024539   0.346840339   0.062607026
  C   -0.490743928   1.287102771   0.117182787
  H   -0.899930873   2.307803049   0.131524647
  C    1.824576490   1.142476935   3.510705421
  H    2.466423169   2.035521280   3.511214789
  C    2.399335974  -0.129901668   3.525140652
  H    3.493627585  -0.238788201   3.537052531
  C    1.584836987  -1.263935152   3.522646954
  H    2.037773355  -2.266017671   3.530605167
  C    0.195772046  -1.125155964   3.505620956
  H   -0.445867911  -2.018182074   3.497705013
  C   -0.378844155   0.146848743   3.488884260
  H   -1.472805119   0.255675754   3.468591392
  C    0.435340335   1.280827070   3.492161270
  H   -0.016879044   2.283131295   3.477265711
24
Cycle: 15 E: -15778.410514380832 kcal/mol
  C    0.897088919   1.086723128   0.137371997
  H    1.576815669   1.950136763   0.167144142
  C    1.414608217  -0.209611005   0.122130370
  H    2.502210823  -0.367473808   0.141935023
  C    0.550893910  -1.305674357   0.086879571
  H    0.958618447  -2.326563440   0.079617850
  C   -0.830720912  -1.106064309   0.069869404
  H   -1.511084607  -1.969295142   0.047169004
  C   -1.348518338   0.190510300   0.085966895
  H   -2.436480949   0.348122158   0.074222599
  C   -0.484594153   1.286879890   0.118752280
  H   -0.892720770   2.307589903   0.133252502
  C    1.818808530   1.143684175   3.509772186
  H    2.459816092   2.036859643   3.510617102
  C    2.394480343  -0.128351938   3.518859786
  H    3.488496830  -0.236506473   3.526890988
  C    1.580708724  -1.262886898   3.515681311
  H    2.034154610  -2.264348466   3.519348392
  C    0.191526892  -1.124994198   3.503464994
  H   -0.449194345  -2.018209083   3.495294154
  C   -0.384027732   0.146607597   3.492231907
  H   -1.477755115   0.254697994   3.475999248
  C    0.429417381   1.281110204   3.496020151
  H   -0.023368010   2.282793705   3.485374489
24
Cycle: 16 E: -15778.412477669803 kcal/mol
  C    0.900236400   1.085895762   0.135131227
  H    1.580248419   1.948829469   0.162513067
  C    1.417202067  -0.210657371   0.119767006
  H    2.504527745  -0.368921534   0.137029210
  C    0.552931126  -1.306376603   0.087695755
  H    0.960035119  -2.327231386   0.080322532
  C   -0.828631978  -1.106164296   0.073738208
  H   -1.509241555  -1.968928063   0.053448830
  C   -1.345865855   0.190629999   0.089820817
  H   -2.433525783   0.348648707   0.080562490
  C   -0.481389374   1.286647697   0.119616692
  H   -0.888928889   2.307304706   0.134251932
  C    1.815822618   1.144395684   3.509619407
  H    2.456372956   2.037571547   3.510890003
  C    2.391897806  -0.127395351   3.515706891
  H    3.485698180  -0.235173629   3.521812982
  C    1.578500863  -1.262188329   3.511811992
  H    2.032230607  -2.263241020   3.513080083
  C    0.189164226  -1.124912385   3.501944862
  H   -0.451067637  -2.018152922   3.493396283
  C   -0.386703408   0.146647606   3.493864188
  H   -1.480223796   0.254475792   3.479638107
  C    0.426450441   1.281358605   3.498242822
  H   -0.026559842   2.282673661   3.489960957
