24
Cycle: 0 E: -15776.801138256144 kcal/mol
  C    0.712645325   1.120995701   0.060540783
  H    1.357841649   1.986399167   0.127737169
  C    1.258235731  -0.159251901   0.124233518
  H    2.324954277  -0.287099878   0.246743035
  C    0.426884963  -1.274526662   0.042650428
  H    0.850444649  -2.268432680   0.094749952
  C   -0.949577845  -1.110074058  -0.100313595
  H   -1.594455696  -1.976273703  -0.163713480
  C   -1.495525640   0.171050561  -0.161546018
  H   -2.563782791   0.299221149  -0.273703115
  C   -0.663827601   1.286642887  -0.083401433
  H   -1.086900697   2.281000204  -0.132886135
  C    1.987760455   1.109757200   3.710319581
  H    2.632605579   1.975940943   3.774070299
  C    2.533713581  -0.171393899   3.771839314
  H    3.601920465  -0.299540949   3.884583533
  C    1.702064101  -1.286993999   3.693188885
  H    2.125145808  -2.281346434   3.742842548
  C    0.325662540  -1.121358970   3.548472137
  H   -0.319440056  -1.986769214   3.480839505
  C   -0.219897331   0.158873777   3.484506309
  H   -1.286525365   0.286702990   3.361327548
  C    0.611379619   1.274154539   3.566577253
  H    0.187854737   2.268059573   3.514208323
24
Cycle: 1 E: -15777.29796708299 kcal/mol
  C    0.715014029   1.121240463   0.080701699
  H    1.361587445   1.988684702   0.156135417
  C    1.261191377  -0.160269198   0.135560630
  H    2.330639439  -0.289080602   0.259668710
  C    0.429828892  -1.276103972   0.043676584
  H    0.854594335  -2.273049255   0.089554627
  C   -0.947346401  -1.110458172  -0.100768605
  H   -1.593828552  -1.978572974  -0.171885204
  C   -1.493733345   0.171858983  -0.153238838
  H   -2.564742105   0.301027848  -0.266649785
  C   -0.661983861   1.287719602  -0.064765026
  H   -1.086406980   2.285048499  -0.107419226
  C    1.986226590   1.111015934   3.692222415
  H    2.633102116   1.979842486   3.749592973
  C    2.532143387  -0.170584728   3.763535027
  H    3.603247840  -0.298485446   3.877544367
  C    1.699729579  -1.287338103   3.693088217
  H    2.123830760  -2.284095777   3.750039194
  C    0.322486601  -1.122475158   3.546927135
  H   -0.324501213  -1.990664321   3.485120345
  C   -0.223060940   0.158419470   3.473161991
  H   -1.292569088   0.285981472   3.348393074
  C    0.609049325   1.274860980   3.546924127
  H    0.184681223   2.271213611   3.486746495
24
Cycle: 2 E: -15777.883363604682 kcal/mol
  C    0.722111574   1.120071625   0.115489943
  H    1.371599233   1.990363903   0.204144391
  C    1.268026659  -0.162993907   0.154280676
  H    2.342072649  -0.294704424   0.279393861
  C    0.435848502  -1.277038725   0.045923426
  H    0.862487041  -2.279055914   0.080397958
  C   -0.941364668  -1.110430807  -0.098795865
  H   -1.590400072  -1.981776721  -0.182120424
  C   -1.488083568   0.173029287  -0.135417293
  H   -2.563830654   0.304208081  -0.249288673
  C   -0.655777158   1.288650652  -0.030475891
  H   -1.082105166   2.291033476  -0.060639186
  C    1.980502327   1.112964309   3.658891392
  H    2.630547033   1.986333863   3.704575677
  C    2.526747457  -0.168556294   3.745358472
  H    3.602938336  -0.295748951   3.859588411
  C    1.693695278  -1.286606014   3.689787068
  H    2.119653877  -2.287278952   3.757962666
  C    0.315919295  -1.122913818   3.543730573
  H   -0.334183375  -1.995731321   3.492620259
  C   -0.230314364   0.157367852   3.454767817
  H   -1.304940527   0.283767581   3.329254905
  C    0.602179083   1.275316995   3.513405114
  H    0.175851666   2.275464568   3.441031068
24
Cycle: 3 E: -15778.125868855272 kcal/mol
  C    0.727346933   1.119001082   0.136645326
  H    1.378774320   1.991252487   0.232299916
  C    1.273670896  -0.164622253   0.165350957
  H    2.351118439  -0.296560452   0.289662944
  C    0.442575494  -1.280891853   0.048447197
  H    0.870147226  -2.286354249   0.075591860
  C   -0.935999068  -1.109170579  -0.094775855
  H   -1.588726308  -1.981211022  -0.184661008
  C   -1.481448725   0.175471212  -0.121218463
  H   -2.560380067   0.308766900  -0.233978213
  C   -0.649354946   1.288994888  -0.007676930
  H   -1.076639939   2.294750717  -0.029819714
  C    1.974424192   1.113981305   3.635905105
  H    2.626262730   1.990507596   3.673434119
  C    2.521169526  -0.166296389   3.730962107
  H    3.600949976  -0.292417158   3.843868409
  C    1.688590608  -1.285649861   3.685693734
  H    2.117135604  -2.288335477   3.760290576
  C    0.309274185  -1.124936467   3.541504751
  H   -0.342574694  -2.001014356   3.497892436
  C   -0.236624778   0.156053015   3.443950341
  H   -1.314736343   0.282239093   3.319460771
  C    0.596063164   1.274815414   3.492201913
  H    0.168162030   2.277362752   3.412834067
24
Cycle: 4 E: -15778.248823756963 kcal/mol
  C    0.739138912   1.116762424   0.155449524
  H    1.393710363   1.989780784   0.256206579
  C    1.283053825  -0.168391623   0.173715190
  H    2.363241084  -0.305199768   0.294903703
  C    0.447847028  -1.278130568   0.050383217
  H    0.875799582  -2.286727525   0.070021297
  C   -0.929383804  -1.110003822  -0.088555583
  H   -1.582645657  -1.984873103  -0.182731670
  C   -1.475326424   0.174843757  -0.104978852
  H   -2.557386954   0.309444342  -0.214533713
  C   -0.640529617   1.289275238   0.014959478
  H   -1.068266034   2.298172321   0.000983770
  C    1.966182601   1.116320531   3.614203724
  H    2.619513823   1.995673786   3.644336212
  C    2.514492752  -0.164547015   3.713541036
  H    3.597695271  -0.290194071   3.822426654
  C    1.681627910  -1.284392320   3.677413159
  H    2.111088178  -2.289660125   3.754855260
  C    0.302786730  -1.122693308   3.538580463
  H   -0.350479444  -2.001668618   3.501810907
  C   -0.246157466   0.155767292   3.436684374
  H   -1.327937171   0.279832099   3.316097882
  C    0.585632591   1.275920599   3.475489427
  H    0.155482379   2.280425037   3.392604305
24
Cycle: 5 E: -15778.291203489558 kcal/mol
  C    0.744692310   1.115738878   0.161192890
  H    1.400668191   1.989354217   0.262142316
  C    1.288253911  -0.169785164   0.175724349
  H    2.370073110  -0.306810133   0.294072547
  C    0.452944745  -1.280648379   0.052204456
  H    0.880750122  -2.290820267   0.069002016
  C   -0.925242649  -1.109300471  -0.083125819
  H   -1.580920787  -1.984005339  -0.177392467
  C   -1.469854020   0.176294320  -0.095727247
  H   -2.553371276   0.312252204  -0.202430719
  C   -0.634452023   1.289311402   0.024388840
  H   -1.062078599   2.299730566   0.013480684
  C    1.960422074   1.117207574   3.604401044
  H    2.614119739   1.998050988   3.631165058
  C    2.509696660  -0.162892791   3.703942502
  H    3.594643241  -0.287753680   3.809663523
  C    1.677577576  -1.283583094   3.671967942
  H    2.108867295  -2.289505126   3.749443220
  C    0.297609049  -1.123750315   3.537196317
  H   -0.355987222  -2.004279545   3.503578714
  C   -0.251799247   0.155068405   3.435073270
  H   -1.335300776   0.278888413   3.317646566
  C    0.579634691   1.275785787   3.469686951
  H    0.148234346   2.281187892   3.386569387
24
Cycle: 6 E: -15778.305992068696 kcal/mol
  C    0.750402371   1.114712224   0.162876513
  H    1.407603777   1.988417485   0.262359591
  C    1.293196129  -0.171228223   0.175340882
  H    2.375960849  -0.308912404   0.290460931
  C    0.457026099  -1.282003513   0.053631536
  H    0.884377697  -2.293123318   0.068827296
  C   -0.921639356  -1.109021740  -0.077743052
  H   -1.578854880  -1.983570673  -0.170483290
  C   -1.465206665   0.177086068  -0.088267504
  H   -2.549581962   0.314025521  -0.191832049
  C   -0.628799889   1.289286309   0.030028136
  H   -1.056013151   2.300622398   0.020835928
  C    1.955086938   1.118155038   3.598518133
  H    2.608737055   1.999924033   3.623365647
  C    2.505427504  -0.161560357   3.696040376
  H    3.591454961  -0.285813931   3.798261222
  C    1.673959050  -1.282866773   3.666368250
  H    2.106526886  -2.289095188   3.742144105
  C    0.293277703  -1.124093228   3.536046552
  H   -0.360239980  -2.005587614   3.504251152
  C   -0.257052202   0.154670266   3.435923403
  H   -1.341666977   0.278054236   3.322081417
  C    0.573842244   1.275931032   3.468179055
  H    0.141356257   2.281728697   3.386652117
24
Cycle: 7 E: -15778.318928616296 kcal/mol
  C    0.758871437   1.113201891   0.163551073
  H    1.417713038   1.986746942   0.260058963
  C    1.300418276  -0.173344371   0.173673060
  H    2.384179636  -0.312047021   0.283762300
  C    0.462778747  -1.283728700   0.055620672
  H    0.889278007  -2.295877857   0.068970136
  C   -0.916469878  -1.108728890  -0.069659010
  H   -1.575617115  -1.982874870  -0.159374127
  C   -1.458538015   0.178070712  -0.077844467
  H   -2.543797475   0.316324225  -0.176546378
  C   -0.620537114   1.289216953   0.036792020
  H   -1.046952613   2.301545005   0.029566132
  C    1.947283547   1.119557549   3.591452065
  H    2.600598570   2.002369630   3.614078792
  C    2.499223107  -0.159681596   3.685034083
  H    3.586434594  -0.283065731   3.781919502
  C    1.668725357  -1.281827612   3.657982403
  H    2.102957331  -2.288218110   3.730502426
  C    0.287118726  -1.124420199   3.534404223
  H   -0.366032536  -2.006998896   3.504740967
  C   -0.264674432   0.154174497   3.438203223
  H   -1.350534089   0.276866314   3.329855999
  C    0.565356367   1.276210145   3.467753761
  H    0.131396986   2.282266332   3.389368527
24
Cycle: 8 E: -15778.332368112759 kcal/mol
  C    0.771422429   1.110960093   0.163537691
  H    1.432527450   1.984020777   0.255167238
  C    1.311035367  -0.176472011   0.170563120
  H    2.395919216  -0.316737862   0.273022843
  C    0.471093063  -1.286038281   0.058505123
  H    0.896212450  -2.299404960   0.069401131
  C   -0.908873485  -1.108370891  -0.057575333
  H   -1.570570177  -1.981778389  -0.142361199
  C   -1.448766612   0.179395101  -0.062690201
  H   -2.535000234   0.319493986  -0.154027481
  C   -0.608354267   1.289091839   0.045969282
  H   -1.033439472   2.302598306   0.041354994
  C    1.935769936   1.121635443   3.581912706
  H    2.588374007   2.005738196   3.601615659
  C    2.490061959  -0.156964127   3.669152057
  H    3.578661328  -0.279066913   3.758083296
  C    1.661000347  -1.280294880   3.645507651
  H    2.097466194  -2.286685756   3.712805471
  C    0.278193581  -1.124742790   3.531946058
  H   -0.374229742  -2.008647303   3.505099665
  C   -0.275837173   0.153480869   3.442076070
  H   -1.363184487   0.275067490   3.341934658
  C    0.552853900   1.276649039   3.468085980
  H    0.116844879   2.282809369   3.394779867
24
Cycle: 9 E: -15778.347693087017 kcal/mol
  C    0.789816240   1.107636050   0.162637438
  H    1.454051811   1.979747835   0.246676036
  C    1.326491979  -0.181085726   0.165422906
  H    2.412635944  -0.323719655   0.256500665
  C    0.483086190  -1.289188601   0.062703201
  H    0.906060146  -2.304058860   0.070229452
  C   -0.897722067  -1.107929285  -0.039685051
  H   -1.562814072  -1.980125852  -0.116829764
  C   -1.434460957   0.181193626  -0.040618963
  H   -2.521760255   0.323909282  -0.120967937
  C   -0.590506252   1.288867970   0.058754813
  H   -1.013488109   2.303836474   0.057728683
  C    1.918886727   1.124698153   3.568761339
  H    2.570235625   2.010463050   3.584546805
  C    2.476539248  -0.152969575   3.646224936
  H    3.566777352  -0.273172492   3.723475023
  C    1.649614866  -1.277997969   3.627097072
  H    2.089132994  -2.284136567   3.686371388
  C    0.265233300  -1.125116716   3.528205119
  H   -0.385940551  -2.010711107   3.505140318
  C   -0.292020844   0.152507209   3.448113582
  H   -1.381149814   0.272426663   3.360028174
  C    0.534657700   1.277307788   3.469407728
  H    0.095823256   2.283354648   3.403943381
24
Cycle: 10 E: -15778.378093035746 kcal/mol
  C    0.851324358   1.096327163   0.157521700
  H    1.525290256   1.964495726   0.214724941
  C    1.377492447  -0.196768033   0.146947701
  H    2.466216727  -0.347848237   0.199157075
  C    0.522536878  -1.298987923   0.077286930
  H    0.938174940  -2.318087470   0.074181172
  C   -0.859762070  -1.106263744   0.021594702
  H   -1.535057729  -1.973925214  -0.028593941
  C   -1.385577089   0.187343411   0.033762231
  H   -2.474911341   0.338890407  -0.009034229
  C   -0.530051932   1.288243780   0.100320742
  H   -0.945234606   2.307541204   0.110654911
  C    1.861662290   1.135121478   3.526132622
  H    2.507887747   2.026108154   3.529584234
  C    2.430323284  -0.139598735   3.569860618
  H    3.524454775  -0.253027811   3.607933175
  C    1.610829787  -1.270254131   3.564793167
  H    2.059184711  -2.274912434   3.596380482
  C    0.223119548  -1.125542566   3.514980697
  H   -0.423451472  -2.016077438   3.503818531
  C   -0.345526547   0.148498389   3.468700247
  H   -1.439067253   0.261533368   3.421089290
  C    0.473545734   1.279125530   3.475211318
  H    0.025777016   2.283801469   3.436858028
24
Cycle: 11 E: -15778.383742943031 kcal/mol
  C    0.862277137   1.094094458   0.154186979
  H    1.537758581   1.961399559   0.205455461
  C    1.386510997  -0.199762046   0.142014419
  H    2.475332304  -0.352310980   0.186758985
  C    0.529573708  -1.300826683   0.079730798
  H    0.943342575  -2.320632669   0.075249126
  C   -0.852756419  -1.106294734   0.032967607
  H   -1.529533584  -1.973064358  -0.011373803
  C   -1.376700260   0.188036846   0.046694858
  H   -2.466050375   0.341020516   0.011098507
  C   -0.519216564   1.287868753   0.105977268
  H   -0.932907012   2.307710292   0.117728525
  C    1.851369124   1.137068122   3.520998139
  H    2.496579435   2.028737722   3.523416670
  C    2.421462139  -0.136538271   3.557032902
  H    3.515908597  -0.248670717   3.587987471
  C    1.603547732  -1.268331444   3.553002699
  H    2.053867402  -2.272232321   3.578435112
  C    0.214624522  -1.126429372   3.512078074
  H   -0.430666515  -2.017865876   3.501978594
  C   -0.354656534   0.148270305   3.473529495
  H   -1.448494946   0.260950186   3.433283061
  C    0.463458731   1.279603655   3.478915554
  H    0.014549682   2.283935401   3.446719844
24
Cycle: 12 E: -15778.396845717898 kcal/mol
  C    0.884503502   1.090033046   0.144638596
  H    1.562797564   1.955430278   0.182262733
  C    1.404872243  -0.205333174   0.130505477
  H    2.493527568  -0.360712276   0.159527797
  C    0.544136053  -1.304347003   0.085267759
  H    0.954240538  -2.325282531   0.078970238
  C   -0.838193888  -1.105771236   0.057362749
  H   -1.517880505  -1.970432755   0.026417630
  C   -1.358139548   0.190105674   0.072983432
  H   -2.447133801   0.346077414   0.052587590
  C   -0.496857737   1.287571085   0.115452599
  H   -0.907347004   2.308333000   0.129078600
  C    1.830198160   1.140857886   3.511658155
  H    2.473048109   2.033837951   3.512254088
  C    2.403797473  -0.131620691   3.531534514
  H    3.498494532  -0.241231371   3.547871517
  C    1.588605764  -1.265319791   3.529210144
  H    2.041408608  -2.267995525   3.541692396
  C    0.199097833  -1.126422406   3.506538465
  H   -0.443454718  -2.019457544   3.498349708
  C   -0.373839163   0.146869720   3.484296063
  H   -1.468097508   0.256978668   3.459238096
  C    0.441453260   1.280214519   3.487705809
  H   -0.010056879   2.283353405   3.468462188
24
Cycle: 13 E: -15778.40618908335 kcal/mol
  C    0.894836486   1.088007625   0.137109887
  H    1.574247956   1.952207970   0.167019233
  C    1.413283805  -0.208083291   0.123121935
  H    2.501420327  -0.364999452   0.144347050
  C    0.550567425  -1.305573378   0.087686772
  H    0.958863975  -2.326706686   0.081339759
  C   -0.831491430  -1.105720450   0.069173054
  H   -1.512017626  -1.969337567   0.045717920
  C   -1.349738744   0.190786388   0.084601941
  H   -2.438174068   0.348018114   0.071797674
  C   -0.486609723   1.287351168   0.117491767
  H   -0.895453431   2.308244068   0.131165483
  C    1.820509700   1.142690323   3.510237393
  H    2.462069821   2.035993043   3.511252772
  C    2.395637833  -0.129254817   3.521085664
  H    3.490040614  -0.237688825   3.530738112
  C    1.581656641  -1.263759805   3.517926977
  H    2.035334382  -2.265570191   3.523303876
  C    0.192015365  -1.126187216   3.503561991
  H   -0.449093546  -2.019654814   3.495070158
  C   -0.382552976   0.146356152   3.490513234
  H   -1.476595591   0.255227079   3.472406447
  C    0.431467796   1.280565196   3.494622507
  H   -0.021044537   2.282825708   3.482574737
24
Cycle: 14 E: -15778.410617794398 kcal/mol
  C    0.899230353   1.087066921   0.133448570
  H    1.578990808   1.950606298   0.159805062
  C    1.416903559  -0.209296283   0.119589817
  H    2.504624723  -0.366808554   0.137314859
  C    0.553392629  -1.306143244   0.088793469
  H    0.960869825  -2.327179729   0.082487739
  C   -0.828523577  -1.105743624   0.074515408
  H   -1.509256144  -1.968784521   0.054511224
  C   -1.346087531   0.190997000   0.089747710
  H   -2.434087856   0.348713123   0.080392764
  C   -0.482212874   1.287172262   0.118194492
  H   -0.890287964   2.307945418   0.131840409
  C    1.816371893   1.143505013   3.510079410
  H    2.457291374   2.036777809   3.511546529
  C    2.392113666  -0.128258198   3.516795845
  H    3.486186345  -0.236225337   3.523669149
  C    1.578573158  -1.263024922   3.512890038
  H    2.032439020  -2.264333215   3.515036607
  C    0.188969369  -1.125891482   3.501935869
  H   -0.451462680  -2.019353338   3.493053751
  C   -0.386315436   0.146228173   3.493176902
  H   -1.480068222   0.254530465   3.477945147
  C    0.427187444   1.280764471   3.497937828
  H   -0.025661424   2.282471837   3.489157745
24
Cycle: 15 E: -15778.41263994376 kcal/mol
  C    0.901597556   1.086475592   0.131776253
  H    1.581515915   1.949607515   0.156345165
  C    1.418868133  -0.210022797   0.117813121
  H    2.506306736  -0.367863896   0.133661166
  C    0.554916873  -1.306457316   0.089448419
  H    0.961977075  -2.327374548   0.083049891
  C   -0.826891347  -1.105845407   0.077448820
  H   -1.507651100  -1.968570876   0.059203459
  C   -1.344141224   0.190991731   0.092700390
  H   -2.431855136   0.348930376   0.085221916
  C   -0.479867476   1.286989683   0.118893265
  H   -0.887515877   2.307645008   0.132663135
  C    1.814183296   1.143997719   3.509904104
  H    2.454751414   2.037193831   3.511660912
  C    2.390211992  -0.127690015   3.514406189
  H    3.484047169  -0.235445211   3.519849526
  C    1.576854472  -1.262551566   3.510000610
  H    2.030747518  -2.263563200   3.510413253
  C    0.187292032  -1.125604560   3.500766686
  H   -0.452805135  -2.018976948   3.491623962
  C   -0.388344741   0.146282890   3.494369893
  H   -1.481882263   0.254303959   3.480601539
  C    0.424925770   1.280958013   3.499546376
  H   -0.028061194   2.282326367   3.492498294
