24
Cycle: 0 E: -15776.801138256144 kcal/mol
  C    0.712645325   1.120995701   0.060540783
  H    1.357841649   1.986399167   0.127737169
  C    1.258235731  -0.159251901   0.124233518
  H    2.324954277  -0.287099878   0.246743035
  C    0.426884963  -1.274526662   0.042650428
  H    0.850444649  -2.268432680   0.094749952
  C   -0.949577845  -1.110074058  -0.100313595
  H   -1.594455696  -1.976273703  -0.163713480
  C   -1.495525640   0.171050561  -0.161546018
  H   -2.563782791   0.299221149  -0.273703115
  C   -0.663827601   1.286642887  -0.083401433
  H   -1.086900697   2.281000204  -0.132886135
  C    1.987760455   1.109757200   3.710319581
  H    2.632605579   1.975940943   3.774070299
  C    2.533713581  -0.171393899   3.771839314
  H    3.601920465  -0.299540949   3.884583533
  C    1.702064101  -1.286993999   3.693188885
  H    2.125145808  -2.281346434   3.742842548
  C    0.325662540  -1.121358970   3.548472137
  H   -0.319440056  -1.986769214   3.480839505
  C   -0.219897331   0.158873777   3.484506309
  H   -1.286525365   0.286702990   3.361327548
  C    0.611379619   1.274154539   3.566577253
  H    0.187854737   2.268059573   3.514208323
24
Cycle: 1 E: -15777.48136966106 kcal/mol
  C    0.710786033   1.118676994   0.060462070
  H    1.360487747   1.990035081   0.128013347
  C    1.255153685  -0.158932452   0.124090496
  H    2.329392380  -0.287642351   0.247194800
  C    0.425747349  -1.271823958   0.042621569
  H    0.852164778  -2.272570235   0.094977703
  C   -0.947759578  -1.107558715  -0.100102380
  H   -1.597120794  -1.979848152  -0.163924053
  C   -1.492442354   0.170628950  -0.161335270
  H   -2.568191814   0.299749208  -0.274119758
  C   -0.662547616   1.283836511  -0.083182447
  H   -1.088651246   2.285104665  -0.133043461
  C    1.985949726   1.107221224   3.710107855
  H    2.635271008   1.979518547   3.774282794
  C    2.530622284  -0.170961353   3.771625813
  H    3.606326758  -0.300068953   3.885002410
  C    1.700788000  -1.284184387   3.692969193
  H    2.126894701  -2.285449610   3.743001051
  C    0.327531646  -1.119040788   3.548552483
  H   -0.322090850  -1.990409577   3.480561722
  C   -0.216817965   0.158552925   3.484650106
  H   -1.290967560   0.287246199   3.360873703
  C    0.612521124   1.271459309   3.566606695
  H    0.186133013   2.272197260   3.513979905
24
Cycle: 2 E: -15777.754039356065 kcal/mol
  C    0.711378974   1.119539500   0.060679394
  H    1.362466288   1.992810155   0.128222690
  C    1.256064346  -0.159067474   0.124458175
  H    2.332707029  -0.288053423   0.247497070
  C    0.426158199  -1.272791250   0.042822671
  H    0.853450344  -2.275724972   0.095161383
  C   -0.948307795  -1.108343896  -0.100111677
  H   -1.599112033  -1.982508664  -0.164048751
  C   -1.493343554   0.170736362  -0.161562750
  H   -2.571471769   0.300140602  -0.274404319
  C   -0.662888169   1.284756218  -0.083131754
  H   -1.089961285   2.288169055  -0.133129829
  C    1.986499625   1.108005976   3.710117245
  H    2.637260546   1.982177933   3.774409043
  C    2.531526420  -0.171071375   3.771853741
  H    3.609600607  -0.300459460   3.885288301
  C    1.701132482  -1.285103220   3.692918394
  H    2.128203029  -2.288511531   3.743088661
  C    0.326944521  -1.119905845   3.548334532
  H   -0.324072528  -1.993187303   3.480351650
  C   -0.217726582   0.158691797   3.484281143
  H   -1.294286971   0.287657768   3.360570431
  C    0.612113057   1.272425529   3.566404827
  H    0.184845676   2.275353861   3.513796076
24
Cycle: 3 E: -15777.99235642 kcal/mol
  C    0.712344110   1.120772109   0.061084946
  H    1.364791998   1.996131409   0.128485914
  C    1.257543744  -0.159204302   0.125077738
  H    2.336579401  -0.288542832   0.247824340
  C    0.426779798  -1.274265025   0.043191112
  H    0.854957740  -2.279486375   0.095407360
  C   -0.949176264  -1.109586518  -0.100120382
  H   -1.601451340  -1.985625961  -0.164154643
  C   -1.494744282   0.170914597  -0.161890766
  H   -2.575287208   0.300594718  -0.274716944
  C   -0.663461472   1.286194857  -0.083047951
  H   -1.091506977   2.291778207  -0.133188287
  C    1.987373549   1.109235805   3.710126495
  H    2.639599650   1.985296593   3.774517292
  C    2.532924104  -0.171238944   3.772181215
  H    3.613414762  -0.300913834   3.885603117
  C    1.701709106  -1.286542646   3.692834325
  H    2.129748242  -2.292120409   3.743149267
  C    0.325975931  -1.121133773   3.547926092
  H   -0.326399389  -1.996509249   3.480088425
  C   -0.219202137   0.158819261   3.483659226
  H   -1.298162924   0.288147974   3.360243380
  C    0.611492821   1.273905554   3.566034463
  H    0.183337495   2.279115131   3.513550611
24
Cycle: 4 E: -15778.096374339999 kcal/mol
  C    0.712949818   1.121743838   0.061461439
  H    1.366296494   1.998322215   0.128680531
  C    1.258534054  -0.159419190   0.125614662
  H    2.339153092  -0.288869489   0.248028691
  C    0.427212633  -1.275243295   0.043543628
  H    0.855935898  -2.281975676   0.095603340
  C   -0.949710327  -1.110435372  -0.100092170
  H   -1.602996447  -1.987677813  -0.164187565
  C   -1.495686868   0.171054326  -0.162116981
  H   -2.577766466   0.300888334  -0.274908647
  C   -0.663789512   1.287137257  -0.082941733
  H   -1.092527271   2.294162899  -0.133185010
  C    1.987896354   1.110113420   3.710096133
  H    2.641142320   1.987343733   3.774551981
  C    2.533875572  -0.171407505   3.772408262
  H    3.615890036  -0.301205793   3.885795998
  C    1.702031217  -1.287475376   3.692726341
  H    2.130769257  -2.294505942   3.743148045
  C    0.325388083  -1.122123035   3.547549437
  H   -0.327905832  -1.998700260   3.479894299
  C   -0.220198233   0.159059630   3.483118843
  H   -1.300734625   0.288473690   3.360040593
  C    0.611063305   1.274868378   3.565680981
  H    0.182357902   2.281607369   3.513355246
24
Cycle: 5 E: -15778.142466356045 kcal/mol
  C    0.713474844   1.122158973   0.061830487
  H    1.367314378   1.999854290   0.128841008
  C    1.259179423  -0.159305911   0.126084750
  H    2.340893514  -0.289105055   0.248162636
  C    0.427532871  -1.276003601   0.043881563
  H    0.856575944  -2.283650433   0.095772587
  C   -0.950159895  -1.110949264  -0.100047479
  H   -1.604017560  -1.989040472  -0.164173527
  C   -1.496261909   0.171049909  -0.162259465
  H   -2.579413902   0.301086543  -0.275029594
  C   -0.664068957   1.287872290  -0.082829235
  H   -1.093200713   2.295734399  -0.133140910
  C    1.988379636   1.110559832   3.710054409
  H    2.642166362   1.988715173   3.774539891
  C    2.534430265  -0.171331771   3.772547668
  H    3.617543066  -0.301407413   3.885918738
  C    1.702331910  -1.288241805   3.692615026
  H    2.131439234  -2.296071008   3.743105340
  C    0.324822765  -1.122491813   3.547174188
  H   -0.328923710  -2.000235082   3.479734697
  C   -0.220831168   0.158884173   3.482648212
  H   -1.302480854   0.288712168   3.359907632
  C    0.610735146   1.275667136   3.565340350
  H    0.181719766   2.283275086   3.513187369
24
Cycle: 6 E: -15778.164416512853 kcal/mol
  C    0.713641021   1.122939855   0.062179101
  H    1.368057476   2.000979934   0.128992758
  C    1.259761764  -0.159735407   0.126557416
  H    2.342204157  -0.289266193   0.248264910
  C    0.427681702  -1.276342724   0.044217617
  H    0.857080868  -2.284986762   0.095945663
  C   -0.950242417  -1.111552406  -0.099946797
  H   -1.604807852  -1.990072515  -0.164131634
  C   -1.496742289   0.171338871  -0.162363265
  H   -2.580624692   0.301221853  -0.275114035
  C   -0.664163291   1.288207883  -0.082681091
  H   -1.093729832   2.296984279  -0.133070216
  C    1.988386059   1.111297555   3.709944078
  H    2.642951820   1.989731209   3.774499168
  C    2.534951609  -0.171771433   3.772655418
  H    3.618739985  -0.301535001   3.886002728
  C    1.702383025  -1.288503011   3.692460509
  H    2.131976257  -2.297336509   3.743037435
  C    0.324744352  -1.123379693   3.546833747
  H   -0.329667950  -2.001353158   3.479583906
  C   -0.221434002   0.159448961   3.482170506
  H   -1.303785425   0.288867813   3.359808120
  C    0.610609754   1.275925280   3.565005626
  H    0.181208359   2.284627663   3.513014677
24
Cycle: 7 E: -15778.175660290824 kcal/mol
  C    0.714026140   1.123098570   0.062557820
  H    1.368631734   2.001903839   0.129142476
  C    1.260090306  -0.159552190   0.126992532
  H    2.343252960  -0.289418873   0.248355080
  C    0.427940706  -1.276873256   0.044571388
  H    0.857429755  -2.285952675   0.096114718
  C   -0.950578029  -1.111702503  -0.099861209
  H   -1.605397157  -1.990870175  -0.164068608
  C   -1.497027966   0.171165987  -0.162417699
  H   -2.581544647   0.301338531  -0.275176941
  C   -0.664314156   1.288714632  -0.082530727
  H   -1.094109721   2.297880664  -0.132977201
  C    1.988783703   1.111355662   3.709864438
  H    2.643542676   1.990538177   3.774437771
  C    2.535212070  -0.171490895   3.772705590
  H    3.619668008  -0.301656792   3.886067313
  C    1.702564375  -1.289071084   3.692312202
  H    2.132349990  -2.298218575   3.742945548
  C    0.324297200  -1.123452883   3.546446131
  H   -0.330243834  -2.002285072   3.479435321
  C   -0.221746356   0.159161849   3.481735974
  H   -1.304839760   0.289025159   3.359719477
  C    0.610328199   1.276517880   3.564647442
  H    0.180864258   2.285580365   3.512847507
24
Cycle: 8 E: -15778.178095592444 kcal/mol
  C    0.714123983   1.123202998   0.062780579
  H    1.368853351   2.002276993   0.129236764
  C    1.260249388  -0.159543002   0.127251344
  H    2.343656788  -0.289478078   0.248400220
  C    0.427999545  -1.277021459   0.044782903
  H    0.857565939  -2.286349926   0.096224402
  C   -0.950626143  -1.111892334  -0.099777935
  H   -1.605610943  -1.991154023  -0.164013075
  C   -1.497136913   0.171246372  -0.162420714
  H   -2.581873632   0.301374921  -0.275198335
  C   -0.664355022   1.288848318  -0.082421498
  H   -1.094256293   2.298232401  -0.132904408
  C    1.988821537   1.111544480   3.709779237
  H    2.643758077   1.990823843   3.774383251
  C    2.535316886  -0.171575635   3.772707374
  H    3.619998207  -0.301693288   3.886089224
  C    1.702607154  -1.289195793   3.692202334
  H    2.132497081  -2.298572682   3.742873849
  C    0.324202959  -1.123570903   3.546222644
  H   -0.330464744  -2.002655837   3.479342046
  C   -0.221908455   0.159166252   3.481475589
  H   -1.305243128   0.289083695   3.359675962
  C    0.610278759   1.276658432   3.564436211
  H    0.180726075   2.285980598   3.512738378
