24
Cycle: 0 E: -15776.801138256144 kcal/mol
  C    0.712645325   1.120995701   0.060540783
  H    1.357841649   1.986399167   0.127737169
  C    1.258235731  -0.159251901   0.124233518
  H    2.324954277  -0.287099878   0.246743035
  C    0.426884963  -1.274526662   0.042650428
  H    0.850444649  -2.268432680   0.094749952
  C   -0.949577845  -1.110074058  -0.100313595
  H   -1.594455696  -1.976273703  -0.163713480
  C   -1.495525640   0.171050561  -0.161546018
  H   -2.563782791   0.299221149  -0.273703115
  C   -0.663827601   1.286642887  -0.083401433
  H   -1.086900697   2.281000204  -0.132886135
  C    1.987760455   1.109757200   3.710319581
  H    2.632605579   1.975940943   3.774070299
  C    2.533713581  -0.171393899   3.771839314
  H    3.601920465  -0.299540949   3.884583533
  C    1.702064101  -1.286993999   3.693188885
  H    2.125145808  -2.281346434   3.742842548
  C    0.325662540  -1.121358970   3.548472137
  H   -0.319440056  -1.986769214   3.480839505
  C   -0.219897331   0.158873777   3.484506309
  H   -1.286525365   0.286702990   3.361327548
  C    0.611379619   1.274154539   3.566577253
  H    0.187854737   2.268059573   3.514208323
24
Cycle: 1 E: -15777.302545455053 kcal/mol
  C    0.715166072   1.121191659   0.082122659
  H    1.361727331   1.988617386   0.158138783
  C    1.261362331  -0.160345882   0.136298830
  H    2.330816549  -0.289205488   0.260466001
  C    0.430035362  -1.276165063   0.043678121
  H    0.854811847  -2.273148227   0.089066344
  C   -0.947135899  -1.110431021  -0.100843517
  H   -1.593617885  -1.978522163  -0.172529417
  C   -1.493533923   0.171915415  -0.152627531
  H   -2.564549685   0.301138068  -0.266087287
  C   -0.661814039   1.287734933  -0.063406220
  H   -1.086254758   2.285099048  -0.105527527
  C    1.986066681   1.111061305   3.690902936
  H    2.632970268   1.979922974   3.747771935
  C    2.531961897  -0.170509924   3.762923616
  H    3.603084983  -0.298367080   3.876981943
  C    1.699525418  -1.287294144   3.693121870
  H    2.123623986  -2.284042037   3.750612117
  C    0.322271942  -1.122499860   3.546887265
  H   -0.324734285  -1.990731389   3.485543027
  C   -0.223248562   0.158378067   3.472423060
  H   -1.292773921   0.285896774   3.347595933
  C    0.608888271   1.274849640   3.545541489
  H    0.184530476   2.271193354   3.484811913
24
Cycle: 2 E: -15777.89830535889 kcal/mol
  C    0.723344457   1.119702384   0.121342027
  H    1.372912478   1.989849387   0.212250761
  C    1.269187866  -0.163499490   0.157135132
  H    2.343306383  -0.295641438   0.282178058
  C    0.436898478  -1.277091784   0.045924975
  H    0.863564858  -2.279292907   0.078236480
  C   -0.940230614  -1.110318026  -0.098726534
  H   -1.589259504  -1.981602322  -0.184243655
  C   -1.486977488   0.173229818  -0.132347773
  H   -2.562816505   0.304691810  -0.246129176
  C   -0.654616338   1.288669085  -0.024514643
  H   -1.080970424   2.291233636  -0.052333118
  C    1.979405320   1.113225710   3.653104454
  H    2.629548035   1.986778537   3.696584400
  C    2.525690097  -0.168160784   3.742223724
  H    3.602038250  -0.295135375   3.856319034
  C    1.692575082  -1.286321525   3.689472662
  H    2.118558775  -2.286970179   3.759665682
  C    0.314783796  -1.122850930   3.543552555
  H   -0.335405698  -1.995865754   3.494482556
  C   -0.231549022   0.157179177   3.451974071
  H   -1.306342244   0.283278880   3.326579856
  C    0.600966830   1.275277819   3.507789403
  H    0.174567589   2.275370614   3.433345413
24
Cycle: 3 E: -15778.13487769541 kcal/mol
  C    0.729058566   1.118477560   0.143100279
  H    1.380620807   1.990536005   0.241050410
  C    1.275373383  -0.165250573   0.168270008
  H    2.352975518  -0.297422689   0.292102210
  C    0.444387222  -1.281576046   0.048474151
  H    0.871910260  -2.287268373   0.073027915
  C   -0.934342243  -1.108822707  -0.094235560
  H   -1.587435931  -1.980507247  -0.186425086
  C   -1.479555272   0.176011735  -0.117082914
  H   -2.558603051   0.309795329  -0.229382129
  C   -0.647450095   1.288977136  -0.000590679
  H   -1.074684034   2.294949464  -0.019943198
  C    1.972611947   1.114287438   3.628879984
  H    2.624492525   1.991054567   3.663667561
  C    2.519492530  -0.165621150   3.726726394
  H    3.599503626  -0.291365728   3.839085199
  C    1.687000631  -1.285201020   3.684975002
  H    2.115846542  -2.287733346   3.761735234
  C    0.307411121  -1.125183652   3.541428591
  H   -0.344463280  -2.001528467   3.500371459
  C   -0.238492864   0.155727353   3.441141309
  H   -1.316830266   0.281655005   3.317222368
  C    0.594210049   1.274650709   3.485902808
  H    0.166142767   2.277095040   3.404365026
24
Cycle: 4 E: -15778.260490978344 kcal/mol
  C    0.742111421   1.115980764   0.162170221
  H    1.397100942   1.988776469   0.264995787
  C    1.285800448  -0.169367934   0.176348658
  H    2.366320726  -0.306681589   0.296347479
  C    0.450364095  -1.278852975   0.050414145
  H    0.878175021  -2.287851232   0.067041367
  C   -0.927041350  -1.109648200  -0.087205385
  H   -1.580871757  -1.984190359  -0.183484928
  C   -1.472605998   0.175444856  -0.099479597
  H   -2.554959402   0.310704715  -0.207931944
  C   -0.637508812   1.289228439   0.023141902
  H   -1.065103898   2.298508490   0.012396475
  C    1.963323221   1.116841127   3.606046957
  H    2.616683797   1.996603112   3.632971928
  C    2.512022011  -0.163640636   3.707786028
  H    3.595674081  -0.288818261   3.815363598
  C    1.679332229  -1.283785950   3.675762534
  H    2.109277133  -2.288985264   3.755076613
  C    0.300153886  -1.122831356   3.538539779
  H   -0.353120050  -2.002250643   3.504778730
  C   -0.249117394   0.155398495   3.434315570
  H   -1.331365622   0.279045559   3.315124621
  C    0.582551291   1.275823666   3.469041288
  H    0.151984436   2.280285052   3.384304517
24
Cycle: 5 E: -15778.293965158868 kcal/mol
  C    0.747546990   1.115011462   0.165318311
  H    1.403908964   1.988288929   0.267328349
  C    1.290747998  -0.170712535   0.176838588
  H    2.372701614  -0.308319438   0.293809925
  C    0.454953021  -1.281012949   0.051954867
  H    0.882506767  -2.291387733   0.066518043
  C   -0.923279420  -1.109116919  -0.081888707
  H   -1.579276437  -1.983530344  -0.177314147
  C   -1.467585242   0.176645731  -0.091426221
  H   -2.551218277   0.313103799  -0.196903027
  C   -0.631735957   1.289243143   0.030129275
  H   -1.059114119   2.299853703   0.021588810
  C    1.957864449   1.117725046   3.598692350
  H    2.611448811   1.998793369   3.623115879
  C    2.507572658  -0.162141544   3.699344794
  H    3.592761951  -0.286629185   3.803607308
  C    1.675617353  -1.283050719   3.670390188
  H    2.107237246  -2.288824733   3.748769574
  C    0.295430995  -1.123675788   3.537420484
  H   -0.358033573  -2.004456487   3.506026042
  C   -0.254451179   0.154839488   3.434259282
  H   -1.338232978   0.278239909   3.318437315
  C    0.576794720   1.275805571   3.465886905
  H    0.145014103   2.281044567   3.381962158
24
Cycle: 6 E: -15778.308898316192 kcal/mol
  C    0.753668237   1.113937721   0.165565660
  H    1.411367139   1.987309658   0.265327835
  C    1.296003145  -0.172232287   0.175499911
  H    2.378942677  -0.310496491   0.288813340
  C    0.459230353  -1.282493100   0.053396222
  H    0.886233813  -2.293847720   0.066689615
  C   -0.919532795  -1.108863328  -0.075985467
  H   -1.577203046  -1.983098531  -0.169137086
  C   -1.462666531   0.177454414  -0.083921160
  H   -2.547184129   0.314934058  -0.185866347
  C   -0.625681330   1.289207160   0.034835394
  H   -1.052558263   2.300763615   0.027636990
  C    1.952156419   1.118748897   3.593693213
  H    2.605627687   2.000775706   3.616534057
  C    2.503053035  -0.160738885   3.691356509
  H    3.589358694  -0.284598138   3.791692222
  C    1.671839709  -1.282310671   3.664277625
  H    2.104849323  -2.288398945   3.740214517
  C    0.290879742  -1.124043214   3.536306822
  H   -0.362440192  -2.005822656   3.506440974
  C   -0.260029985   0.154458397   3.436108425
  H   -1.344966128   0.277428388   3.324334459
  C    0.570598380   1.276003914   3.465806536
  H    0.137634504   2.281658381   3.384246076
24
Cycle: 7 E: -15778.321905270359 kcal/mol
  C    0.762538988   1.112375022   0.164865074
  H    1.421983609   1.985586570   0.260898115
  C    1.303522742  -0.174432483   0.172914806
  H    2.387488199  -0.313725814   0.280780189
  C    0.465162950  -1.284329158   0.055404126
  H    0.891223671  -2.296740064   0.067168538
  C   -0.914219644  -1.108599523  -0.067383451
  H   -1.573941916  -1.982412076  -0.156779927
  C   -1.455731603   0.178452101  -0.073438731
  H   -2.541152278   0.317286005  -0.170134789
  C   -0.617024947   1.289127037   0.040713204
  H   -1.043014885   2.301703192   0.035124585
  C    1.943987108   1.120230973   3.587484583
  H    2.597055932   2.003333621   3.608437537
  C    2.496596108  -0.158785141   3.680272177
  H    3.584110757  -0.281750283   3.774870241
  C    1.666444038  -1.281243805   3.655383833
  H    2.101217951  -2.287499429   3.727342199
  C    0.284515284  -1.124388677   3.534675809
  H   -0.368378129  -2.007278821   3.506647592
  C   -0.267958661   0.153976602   3.439325647
  H   -1.354169139   0.276251926   3.333478374
  C    0.561725258   1.276334997   3.466745661
  H    0.127199063   2.282263573   3.389070952
24
Cycle: 8 E: -15778.33535173218 kcal/mol
  C    0.775510332   1.110075225   0.163480007
  H    1.437315841   1.982795979   0.253863965
  C    1.314452430  -0.177651038   0.168878365
  H    2.399558399  -0.318522142   0.268673489
  C    0.473679299  -1.286755180   0.058320188
  H    0.898264357  -2.300410006   0.067938840
  C   -0.906449022  -1.108266027  -0.054728069
  H   -1.568836838  -1.981313529  -0.138439129
  C   -1.445656810   0.179794334  -0.058163754
  H   -2.532059554   0.320518646  -0.147077207
  C   -0.604417667   1.288990707   0.049041346
  H   -1.028984031   2.302771794   0.045718254
  C    1.932077961   1.122394283   3.578782458
  H    2.584363180   2.006820415   3.597147209
  C    2.487147443  -0.155987193   3.664286708
  H    3.576062355  -0.277639872   3.750524880
  C    1.658524068  -1.279677623   3.642366257
  H    2.095617717  -2.285933994   3.708367769
  C    0.275372250  -1.124718892   3.532199770
  H   -0.376728008  -2.008961662   3.506691700
  C   -0.279443144   0.153288662   3.444108785
  H   -1.367157357   0.274440080   3.346896254
  C    0.548812126   1.276822738   3.468419090
  H    0.112155130   2.282860639   3.396569167
24
Cycle: 9 E: -15778.350654492599 kcal/mol
  C    0.794451223   1.106639420   0.161196277
  H    1.459494372   1.978383109   0.243164037
  C    1.330311955  -0.182424112   0.162754232
  H    2.416677449  -0.325723221   0.250638167
  C    0.485934854  -1.290033469   0.062561354
  H    0.908258207  -2.305224696   0.069082749
  C   -0.895036479  -1.107865608  -0.036130462
  H   -1.560928725  -1.979666998  -0.111375961
  C   -1.430943013   0.181601636  -0.035799203
  H   -2.518404853   0.325009845  -0.113209166
  C   -0.586018932   1.288737902   0.061078492
  H   -1.008366317   2.304014131   0.061034967
  C    1.914678800   1.125578924   3.566431070
  H    2.565623597   2.011707407   3.581226555
  C    2.473207960  -0.151833095   3.641115337
  H    3.563762277  -0.271526474   3.715196912
  C    1.646844476  -1.277291253   3.623248443
  H    2.087107833  -2.283269938   3.680403920
  C    0.262070793  -1.125130610   3.528364629
  H   -0.388702357  -2.011096577   3.506329230
  C   -0.296026173   0.152332708   3.451079074
  H   -1.385519941   0.271811780   3.366411691
  C    0.530129014   1.277542179   3.471124929
  H    0.090574437   2.283463354   3.407939070
24
Cycle: 10 E: -15778.379590147913 kcal/mol
  C    0.858223940   1.094966643   0.152659778
  H    1.533292793   1.962606633   0.205215882
  C    1.383110014  -0.198641215   0.141625152
  H    2.471990346  -0.350593062   0.188619057
  C    0.526886640  -1.300400119   0.077706360
  H    0.941496146  -2.319951022   0.074096418
  C   -0.855558452  -1.106028820   0.028279473
  H   -1.532099656  -1.973002991  -0.017399220
  C   -1.379910505   0.188155665   0.040898859
  H   -2.469305209   0.340788315   0.003055219
  C   -0.523058995   1.288159551   0.101701080
  H   -0.937176285   2.307914998   0.112449508
  C    1.855111477   1.136431100   3.524613831
  H    2.500589827   2.027997463   3.527535353
  C    2.425149647  -0.138110791   3.562712625
  H    3.519555298  -0.250738940   3.595810803
  C    1.606521348  -1.269373441   3.558214807
  H    2.055648373  -2.273848279   3.585369064
  C    0.218783286  -1.125250327   3.514720961
  H   -0.427091853  -2.016328033   3.504210954
  C   -0.351545782   0.147960256   3.474051513
  H   -1.445454327   0.259905172   3.431694843
  C    0.466434857   1.279366509   3.479927266
  H    0.017587530   2.283751078   3.446096758
24
Cycle: 11 E: -15778.385686402706 kcal/mol
  C    0.871259688   1.092176126   0.149098958
  H    1.548155744   1.958756167   0.194826219
  C    1.393735062  -0.202376129   0.135935711
  H    2.482690078  -0.356251257   0.174112641
  C    0.535056916  -1.302488658   0.080500923
  H    0.947498897  -2.322887870   0.075091858
  C   -0.847293545  -1.106136775   0.041663910
  H   -1.525516592  -1.972105286   0.002751834
  C   -1.369424374   0.188901150   0.056350511
  H   -2.458821775   0.343276414   0.027038832
  C   -0.510198410   1.287664189   0.108772868
  H   -0.922513774   2.308110266   0.121385594
  C    1.842888638   1.138807903   3.518394412
  H    2.487159892   2.031225873   3.520091861
  C    2.414542504  -0.134217470   3.547459915
  H    3.509319494  -0.245216887   3.572185476
  C    1.597898908  -1.266914421   3.544180132
  H    2.049517788  -2.270414819   3.564082308
  C    0.208573236  -1.126516790   3.511148901
  H   -0.435856132  -2.018655802   3.501883801
  C   -0.362229564   0.147733079   3.479538384
  H   -1.456460160   0.259391601   3.445816202
  C    0.454673407   1.279940189   3.484084518
  H    0.004524534   2.283935549   3.457470576
24
Cycle: 12 E: -15778.39358869259 kcal/mol
  C    0.881518727   1.090289805   0.143695393
  H    1.559642502   1.955924798   0.182665951
  C    1.402207308  -0.204954752   0.129956292
  H    2.490971891  -0.360155855   0.160696900
  C    0.541741060  -1.304023067   0.082995927
  H    0.952386439  -2.324879843   0.076984703
  C   -0.840557085  -1.105974665   0.053123775
  H   -1.519984281  -1.970956867   0.020844898
  C   -1.360899415   0.189750005   0.068350080
  H   -2.450030280   0.345446227   0.046265054
  C   -0.499919328   1.287488379   0.112416564
  H   -0.910734529   2.308263562   0.125641293
  C    1.833156433   1.140563658   3.515005584
  H    2.476304181   2.033486982   3.516267313
  C    2.406363155  -0.131929785   3.536120807
  H    3.501139688  -0.241783444   3.554120344
  C    1.590954825  -1.265482701   3.533097427
  H    2.043654964  -2.268330961   3.546640362
  C    0.201361687  -1.126476917   3.508460633
  H   -0.441684139  -2.019315319   3.499697431
  C   -0.371038529   0.147178327   3.484880243
  H   -1.465341453   0.257699965   3.458133140
  C    0.444612818   1.280268844   3.489031749
  H   -0.006646180   2.283639967   3.468774480
24
Cycle: 13 E: -15778.404798773301 kcal/mol
  C    0.892478354   1.088162330   0.136238886
  H    1.571695383   1.952512670   0.167179953
  C    1.411252393  -0.207794507   0.122391010
  H    2.499431015  -0.364435196   0.144846750
  C    0.548863015  -1.305527290   0.085678153
  H    0.957479378  -2.326562773   0.079420345
  C   -0.833238100  -1.105918068   0.065847161
  H   -1.513576357  -1.969691407   0.041390745
  C   -1.351791317   0.190464647   0.081122914
  H   -2.440274522   0.347456118   0.067169983
  C   -0.488961553   1.287198945   0.115199552
  H   -0.898051698   2.308023480   0.128693029
  C    1.822804783   1.142489507   3.512934944
  H    2.464587104   2.035664204   3.514467551
  C    2.397571906  -0.129475124   3.524654395
  H    3.491966990  -0.238142320   3.535534101
  C    1.583377098  -1.263823953   3.520943670
  H    2.036930811  -2.265715992   3.527077492
  C    0.193643206  -1.126169394   3.505132520
  H   -0.447781903  -2.019443535   3.496201961
  C   -0.380415747   0.146720467   3.491140185
  H   -1.474422189   0.255983902   3.471735449
  C    0.433936449   1.280683448   3.495826740
  H   -0.018324042   2.283076183   3.483038858
24
Cycle: 14 E: -15778.4100070394 kcal/mol
  C    0.898727338   1.086853851   0.132787376
  H    1.578515277   1.950378923   0.159499307
  C    1.416397810  -0.209502605   0.118475135
  H    2.504131356  -0.367033993   0.136276471
  C    0.552876050  -1.306297522   0.087273229
  H    0.960451655  -2.327308529   0.080605794
  C   -0.829026997  -1.105940599   0.073113399
  H   -1.509741503  -1.969010281   0.052797178
  C   -1.346618888   0.190779006   0.088779306
  H   -2.434636368   0.348482930   0.079446237
  C   -0.482734335   1.286969188   0.117569163
  H   -0.890809735   2.307753362   0.131537126
  C    1.816942221   1.143638721   3.511202367
  H    2.457915534   2.036890828   3.512754604
  C    2.392586073  -0.128093963   3.517898986
  H    3.486667951  -0.236112666   3.524863615
  C    1.579006101  -1.262830320   3.513933230
  H    2.032877490  -2.264153186   3.516107323
  C    0.189332817  -1.125756142   3.502934772
  H   -0.451255218  -2.019127058   3.494013243
  C   -0.385772192   0.146512430   3.494141429
  H   -1.479524295   0.254955574   3.478738310
  C    0.427834097   1.280970872   3.498969552
  H   -0.024961783   2.282717524   3.490149191
24
Cycle: 15 E: -15778.412257351218 kcal/mol
  C    0.901244035   1.086244061   0.131337952
  H    1.581176926   1.949352038   0.156281696
  C    1.418520344  -0.210242985   0.116801540
  H    2.505957621  -0.368092892   0.132656332
  C    0.554563145  -1.306637403   0.088016686
  H    0.961681461  -2.327527549   0.081168569
  C   -0.827236314  -1.106060710   0.076230364
  H   -1.507971006  -1.968799952   0.057661345
  C   -1.344512927   0.190754925   0.092037185
  H   -2.432228936   0.348678006   0.084665553
  C   -0.480234892   1.286762165   0.118594296
  H   -0.887879830   2.307411339   0.132787692
  C    1.814612543   1.144154658   3.510707327
  H    2.455232922   2.037311426   3.512452602
  C    2.390547134  -0.127542906   3.515174397
  H    3.484373683  -0.235367859   3.520600912
  C    1.577120524  -1.262353431   3.510824321
  H    2.030965350  -2.263386929   3.511248757
  C    0.187535646  -1.125373923   3.501671638
  H   -0.452674788  -2.018665883   3.492574775
  C   -0.387972695   0.146598512   3.495260223
  H   -1.481498237   0.254725555   3.481413176
  C    0.425393527   1.281201397   3.500390164
  H   -0.027534779   2.282594686   3.493308843
