24
Cycle: 0 E: -15776.801138256144 kcal/mol
  C    0.712645325   1.120995701   0.060540783
  H    1.357841649   1.986399167   0.127737169
  C    1.258235731  -0.159251901   0.124233518
  H    2.324954277  -0.287099878   0.246743035
  C    0.426884963  -1.274526662   0.042650428
  H    0.850444649  -2.268432680   0.094749952
  C   -0.949577845  -1.110074058  -0.100313595
  H   -1.594455696  -1.976273703  -0.163713480
  C   -1.495525640   0.171050561  -0.161546018
  H   -2.563782791   0.299221149  -0.273703115
  C   -0.663827601   1.286642887  -0.083401433
  H   -1.086900697   2.281000204  -0.132886135
  C    1.987760455   1.109757200   3.710319581
  H    2.632605579   1.975940943   3.774070299
  C    2.533713581  -0.171393899   3.771839314
  H    3.601920465  -0.299540949   3.884583533
  C    1.702064101  -1.286993999   3.693188885
  H    2.125145808  -2.281346434   3.742842548
  C    0.325662540  -1.121358970   3.548472137
  H   -0.319440056  -1.986769214   3.480839505
  C   -0.219897331   0.158873777   3.484506309
  H   -1.286525365   0.286702990   3.361327548
  C    0.611379619   1.274154539   3.566577253
  H    0.187854737   2.268059573   3.514208323
24
Cycle: 1 E: -15777.911826055082 kcal/mol
  C    0.719365793   1.121365346   0.119623918
  H    1.368188443   1.992155228   0.211062912
  C    1.266735800  -0.162186294   0.157295322
  H    2.340922766  -0.292764149   0.284395920
  C    0.435590619  -1.278803173   0.045468350
  H    0.862509247  -2.280996140   0.079144850
  C   -0.942811513  -1.110866157  -0.101791170
  H   -1.591989144  -1.982106192  -0.187962063
  C   -1.490102941   0.173383585  -0.137188234
  H   -2.565894518   0.304395920  -0.252954547
  C   -0.658476534   1.289415860  -0.028709801
  H   -1.085382754   2.291819377  -0.057988610
  C    1.983230222   1.113110049   3.657218959
  H    2.633753348   1.986441725   3.702091777
  C    2.528940259  -0.169007886   3.747497562
  H    3.605103714  -0.296396078   3.863888568
  C    1.695080364  -1.287631678   3.693033918
  H    2.120887193  -2.288404659   3.764225860
  C    0.316354644  -1.124269670   3.544115388
  H   -0.333957243  -1.997275250   3.493740415
  C   -0.228998126   0.157571914   3.451387617
  H   -1.303528233   0.284585952   3.323642673
  C    0.604696094   1.275884929   3.508988185
  H    0.178962957   2.276313785   3.433638576
24
Cycle: 2 E: -15778.273532194527 kcal/mol
  C    0.736174318   1.117040420   0.178795876
  H    1.390693390   1.991498860   0.291492828
  C    1.281548230  -0.168267444   0.187561809
  H    2.363441039  -0.305506211   0.313505339
  C    0.447682156  -1.277955015   0.049560155
  H    0.877474409  -2.288338908   0.062472678
  C   -0.929456682  -1.109939810  -0.094923023
  H   -1.582629745  -1.986379397  -0.200663094
  C   -1.476915331   0.174943950  -0.101895591
  H   -2.560772189   0.309740224  -0.215875457
  C   -0.643520465   1.289566699   0.032887534
  H   -1.073118082   2.300195153   0.026294368
  C    1.969059439   1.116187372   3.597296122
  H    2.624520949   1.996961839   3.620896945
  C    2.516011300  -0.164728519   3.710846280
  H    3.600971468  -0.290625175   3.824482891
  C    1.681784672  -1.284512614   3.683143922
  H    2.110868359  -2.291486395   3.771663971
  C    0.303106498  -1.122739380   3.538396591
  H   -0.352245986  -2.003233151   3.507559931
  C   -0.244607284   0.155697829   3.422392846
  H   -1.328108528   0.279812704   3.296742891
  C    0.588510334   1.275840489   3.452755132
  H    0.158708191   2.281962826   3.358475399
24
Cycle: 3 E: -15778.211289715477 kcal/mol
  C    0.739796387   1.116127900   0.174501933
  H    1.395570920   1.992189798   0.281753758
  C    1.286649101  -0.168370013   0.183990701
  H    2.371205284  -0.300636160   0.304817632
  C    0.457536975  -1.289176140   0.052933492
  H    0.886710909  -2.301560992   0.065926227
  C   -0.923953186  -1.106548162  -0.085033290
  H   -1.584716302  -1.979677633  -0.185873619
  C   -1.466395213   0.180266953  -0.091931058
  H   -2.551909634   0.317970911  -0.200782593
  C   -0.634410531   1.289078274   0.035654717
  H   -1.063349875   2.301578546   0.028932503
  C    1.960261116   1.116115512   3.592174999
  H    2.615543640   1.998913120   3.614008745
  C    2.508359323  -0.161361440   3.700813089
  H    3.595588725  -0.285375436   3.809013364
  C    1.677066433  -1.283107371   3.675324771
  H    2.111318162  -2.289768262   3.760252658
  C    0.294375334  -1.128612698   3.537540987
  H   -0.360795939  -2.011224797   3.508449605
  C   -0.251029536   0.153827502   3.426312558
  H   -1.336421371   0.279832129   3.306200687
  C    0.581818249   1.273936144   3.454719292
  H    0.150361486   2.281318660   3.364165186
24
Cycle: 4 E: -15778.288514423099 kcal/mol
  C    0.736724465   1.116734733   0.176007972
  H    1.391356912   1.992420916   0.286125818
  C    1.283288507  -0.167871098   0.186033939
  H    2.366397517  -0.302986797   0.310327778
  C    0.450960036  -1.281816964   0.051194981
  H    0.880717895  -2.293195437   0.064758323
  C   -0.928073619  -1.108859404  -0.091109972
  H   -1.584237675  -1.984270118  -0.194626441
  C   -1.473101034   0.176857048  -0.098821897
  H   -2.557761153   0.313081639  -0.211020508
  C   -0.640384728   1.288694225   0.032577837
  H   -1.069932344   2.300180674   0.025297920
  C    1.966021736   1.115668290   3.596797646
  H    2.621625004   1.997318316   3.620434591
  C    2.513288311  -0.163612456   3.707982518
  H    3.599312122  -0.288748062   3.819918306
  C    1.680433930  -1.284133658   3.680220878
  H    2.111493622  -2.291243715   3.767118825
  C    0.300322293  -1.124740285   3.537608588
  H   -0.355164089  -2.006190898   3.506752748
  C   -0.246498781   0.155208877   3.423869835
  H   -1.330861218   0.280264535   3.299881191
  C    0.586713106   1.274989115   3.454508016
  H    0.156539642   2.281986866   3.362027457
24
Cycle: 5 E: -15778.302577161996 kcal/mol
  C    0.745088683   1.115442992   0.166645572
  H    1.401512773   1.990542741   0.269783284
  C    1.289497334  -0.169912795   0.178751351
  H    2.372955628  -0.306630273   0.297396613
  C    0.454643864  -1.281874042   0.052491413
  H    0.883182031  -2.293635784   0.067452471
  C   -0.924241121  -1.109203305  -0.083183096
  H   -1.581337351  -1.984596771  -0.179850219
  C   -1.468244358   0.176789992  -0.093078587
  H   -2.553292316   0.313590627  -0.200037829
  C   -0.633244615   1.288759482   0.029738648
  H   -1.061614327   2.300667389   0.020863894
  C    1.959323269   1.117152008   3.599176108
  H    2.614122297   1.999283335   3.624022913
  C    2.508450229  -0.162407706   3.701161223
  H    3.595057942  -0.287129713   3.807022216
  C    1.676456606  -1.283381275   3.671703154
  H    2.108598751  -2.290541141   3.751320799
  C    0.296006722  -1.124096303   3.536797905
  H   -0.358638283  -2.006018468   3.504943444
  C   -0.253012136   0.155159582   3.432223516
  H   -1.338106215   0.279366169   3.314667208
  C    0.578865198   1.275750473   3.464470338
  H    0.147149852   2.282659133   3.379384006
24
Cycle: 6 E: -15778.321974233653 kcal/mol
  C    0.763185997   1.112460111   0.156514882
  H    1.422922552   1.986198177   0.248367540
  C    1.303772126  -0.174373819   0.168912613
  H    2.387981383  -0.313868015   0.275976063
  C    0.464785592  -1.283777379   0.056433527
  H    0.890843274  -2.296436126   0.071274313
  C   -0.914419287  -1.109216449  -0.065478753
  H   -1.574121727  -1.983666374  -0.151056385
  C   -1.455849164   0.177742077  -0.075738265
  H   -2.541607300   0.316398513  -0.171680456
  C   -0.616729975   1.288873821   0.033279428
  H   -1.042738626   2.301697353   0.024421663
  C    1.943748625   1.120272454   3.594835067
  H    2.596935157   2.003514592   3.618971218
  C    2.496520098  -0.159101182   3.682131991
  H    3.584335003  -0.282382504   3.775636759
  C    1.666469013  -1.281417459   3.653129274
  H    2.101261367  -2.288176747   3.721011950
  C    0.284732892  -1.123805478   3.533748307
  H   -0.368267653  -2.006821271   3.502745581
  C   -0.268070887   0.154518471   3.443776501
  H   -1.354580067   0.276982565   3.339063629
  C    0.561367013   1.276831322   3.475431122
  H    0.126705052   2.283289690   3.402158776
24
Cycle: 7 E: -15778.354294173201 kcal/mol
  C    0.799443334   1.106094537   0.146143482
  H    1.465134509   1.976961112   0.219021704
  C    1.333034147  -0.183543162   0.155075309
  H    2.418486653  -0.328297846   0.239481347
  C    0.486834333  -1.288807619   0.065683286
  H    0.908155580  -2.303312821   0.077310238
  C   -0.893176908  -1.108504110  -0.029174748
  H   -1.558386911  -1.980282551  -0.095996716
  C   -1.428919219   0.180727349  -0.036034002
  H   -2.515726901   0.323852234  -0.110168347
  C   -0.582387358   1.288966428   0.049886139
  H   -1.003703367   2.303693132   0.044389096
  C    1.911285170   1.126479116   3.576845267
  H    2.561235870   2.012117648   3.596398599
  C    2.470923675  -0.151765422   3.639648219
  H    3.560849769  -0.271492514   3.709121980
  C    1.644935888  -1.277069323   3.615432296
  H    2.084904688  -2.282598181   3.663539898
  C    0.260853421  -1.123758431   3.526096740
  H   -0.389014225  -2.009056334   3.499641307
  C   -0.298981073   0.152482944   3.460467599
  H   -1.387957193   0.271033077   3.380510449
  C    0.525730451   1.278304023   3.487054780
  H    0.085626124   2.283513060   3.433492424
24
Cycle: 8 E: -15778.395255671576 kcal/mol
  C    0.871087524   1.091927846   0.136845539
  H    1.547436238   1.956579940   0.176288417
  C    1.390734337  -0.203275825   0.134003329
  H    2.477211577  -0.359288959   0.173812671
  C    0.530912719  -1.299449382   0.085246291
  H    0.942705917  -2.317734650   0.086929872
  C   -0.849256466  -1.106861751   0.043652916
  H   -1.524639895  -1.972646169   0.010249398
  C   -1.372702465   0.187272111   0.048326149
  H   -2.460168545   0.340446543   0.017279692
  C   -0.512480075   1.288394683   0.093719145
  H   -0.923928143   2.307086035   0.098835347
  C    1.845104959   1.139296612   3.532167679
  H    2.488170905   2.030038400   3.540196337
  C    2.416816170  -0.134493208   3.550761632
  H    3.509561126  -0.245658578   3.573589507
  C    1.600071273  -1.266617185   3.538961908
  H    2.050444288  -2.268512517   3.551110184
  C    0.211739249  -1.125274291   3.507764532
  H   -0.431834587  -2.015283530   3.492464117
  C   -0.359348519   0.147882835   3.486148606
  H   -1.451597748   0.258783096   3.454069339
  C    0.456310300   1.280466292   3.499728811
  H    0.006830318   2.282657994   3.481714927
24
Cycle: 9 E: -15778.391461560886 kcal/mol
  C    0.917606052   1.083273398   0.131392582
  H    1.599667996   1.944115597   0.147297179
  C    1.429398383  -0.215102550   0.121096080
  H    2.515842376  -0.376508025   0.130119794
  C    0.563102897  -1.309266528   0.101224510
  H    0.967769696  -2.330381146   0.096660612
  C   -0.817589542  -1.103863514   0.096249494
  H   -1.500809024  -1.964059626   0.086723561
  C   -1.331041685   0.194264187   0.107891106
  H   -2.417796821   0.355164471   0.106502285
  C   -0.463654311   1.288347741   0.124720691
  H   -0.868178346   2.309680677   0.136582506
  C    1.799046561   1.147480578   3.498438561
  H    2.436941846   2.041927545   3.497433007
  C    2.379225973  -0.124893398   3.488676067
  H    3.472736701  -0.230137236   3.479908725
  C    1.568104335  -1.261060827   3.486626424
  H    2.022397783  -2.261189373   3.475450512
  C    0.181137514  -1.123401855   3.494748065
  H   -0.457174257  -2.017206733   3.488247916
  C   -0.401032547   0.142622189   3.501562066
  H   -1.494660211   0.244921171   3.502017008
  C    0.406948560   1.280782980   3.504742379
  H   -0.048809473   2.280226620   3.509555214
24
Cycle: 10 E: -15778.405608135055 kcal/mol
  C    0.883807169   1.090071508   0.136548626
  H    1.561334763   1.954048791   0.169150177
  C    1.402417566  -0.205669690   0.131340593
  H    2.489211285  -0.361702629   0.162049067
  C    0.541865962  -1.303842094   0.091070552
  H    0.951212998  -2.323139329   0.090801415
  C   -0.839527198  -1.105426333   0.060283069
  H   -1.518057368  -1.968981715   0.033942911
  C   -1.359600752   0.190150173   0.067078177
  H   -2.446906734   0.345738148   0.044841598
  C   -0.498053117   1.288356242   0.104178854
  H   -0.907723329   2.307693801   0.111444525
  C    1.831585566   1.141251250   3.520270817
  H    2.473277630   2.032973818   3.524975048
  C    2.405893232  -0.132724231   3.531778926
  H    3.498911144  -0.242472371   3.545613981
  C    1.590325474  -1.265740454   3.523541102
  H    2.041247728  -2.267447178   3.529680048
  C    0.202899238  -1.124170020   3.503472542
  H   -0.438707520  -2.015599276   3.491398525
  C   -0.372233332   0.146099465   3.489040694
  H   -1.465036349   0.254120710   3.466206288
  C    0.441196255   1.280371555   3.498726418
  H   -0.010159853   2.281776201   3.486432391
24
Cycle: 11 E: -15778.41446957321 kcal/mol
  C    0.897611308   1.086590994   0.135055645
  H    1.576880045   1.949457875   0.160948848
  C    1.414001263  -0.210133289   0.126409065
  H    2.500785265  -0.368392409   0.147353027
  C    0.550447376  -1.306316879   0.094644536
  H    0.957384720  -2.326628462   0.091720577
  C   -0.830927650  -1.105803063   0.075507337
  H   -1.511274318  -1.968174887   0.056168228
  C   -1.348218929   0.190948639   0.085338919
  H   -2.435360395   0.348818578   0.072569206
  C   -0.484077978   1.287316222   0.114284182
  H   -0.891690323   2.307448432   0.124460459
  C    1.818378431   1.143988870   3.512544094
  H    2.458741542   2.036675562   3.516203141
  C    2.394277887  -0.127844709   3.515234620
  H    3.487590909  -0.235528505   3.521025656
  C    1.581063317  -1.262676938   3.507691323
  H    2.034824450  -2.263154620   3.506531348
  C    0.191696586  -1.125654492   3.497521770
  H   -0.448173954  -2.018435120   3.486445516
  C   -0.383657510   0.146117167   3.492168431
  H   -1.476677694   0.253980461   3.477670408
  C    0.429014488   1.281077470   3.500797988
  H   -0.023458379   2.282059446   3.495572017
24
Cycle: 12 E: -15778.415129775954 kcal/mol
  C    0.900034364   1.085965701   0.133837310
  H    1.579638135   1.948692454   0.157890942
  C    1.416310025  -0.210859300   0.124228062
  H    2.503162374  -0.369350593   0.142651851
  C    0.552155916  -1.306853656   0.095154453
  H    0.958771892  -2.327374958   0.091625710
  C   -0.829369547  -1.105839795   0.079170661
  H   -1.510132179  -1.967986723   0.061752723
  C   -1.346082848   0.191187090   0.089756231
  H   -2.433223978   0.349531836   0.079572981
  C   -0.481468260   1.287049583   0.116339588
  H   -0.888678987   2.307373624   0.127277194
  C    1.815956597   1.144461046   3.511831835
  H    2.456065830   2.037374757   3.515809526
  C    2.392280749  -0.127166400   3.513215290
  H    3.485671195  -0.234533545   3.518319041
  C    1.579345547  -1.262238674   3.505083765
  H    2.033365455  -2.262657147   3.502833537
  C    0.189888230  -1.125519239   3.495667067
  H   -0.449803915  -2.018504488   3.484239322
  C   -0.385979485   0.146079995   3.491894121
  H   -1.479093726   0.253678472   3.478092967
  C    0.426573790   1.281160819   3.500922526
  H   -0.026206718   2.282065485   3.496699642
