24
Cycle: 0 E: -15776.801138256144 kcal/mol
  C    0.712645325   1.120995701   0.060540783
  H    1.357841649   1.986399167   0.127737169
  C    1.258235731  -0.159251901   0.124233518
  H    2.324954277  -0.287099878   0.246743035
  C    0.426884963  -1.274526662   0.042650428
  H    0.850444649  -2.268432680   0.094749952
  C   -0.949577845  -1.110074058  -0.100313595
  H   -1.594455696  -1.976273703  -0.163713480
  C   -1.495525640   0.171050561  -0.161546018
  H   -2.563782791   0.299221149  -0.273703115
  C   -0.663827601   1.286642887  -0.083401433
  H   -1.086900697   2.281000204  -0.132886135
  C    1.987760455   1.109757200   3.710319581
  H    2.632605579   1.975940943   3.774070299
  C    2.533713581  -0.171393899   3.771839314
  H    3.601920465  -0.299540949   3.884583533
  C    1.702064101  -1.286993999   3.693188885
  H    2.125145808  -2.281346434   3.742842548
  C    0.325662540  -1.121358970   3.548472137
  H   -0.319440056  -1.986769214   3.480839505
  C   -0.219897331   0.158873777   3.484506309
  H   -1.286525365   0.286702990   3.361327548
  C    0.611379619   1.274154539   3.566577253
  H    0.187854737   2.268059573   3.514208323
24
Cycle: 1 E: -15777.751406890964 kcal/mol
  C    0.709499332   1.120302180   0.088420664
  H    1.354651506   1.994299131   0.216239122
  C    1.258096848  -0.161780947   0.130296929
  H    2.335204643  -0.291235281   0.253077357
  C    0.428825756  -1.278805443   0.020894070
  H    0.855130707  -2.282876605   0.069543476
  C   -0.947347112  -1.113975285  -0.141659995
  H   -1.591698029  -1.988581319  -0.268636099
  C   -1.495150828   0.168913707  -0.188991363
  H   -2.573275248   0.297701905  -0.306153978
  C   -0.665533724   1.286289426  -0.081450868
  H   -1.092497234   2.290405039  -0.129323302
  C    1.989474463   1.107847363   3.684672620
  H    2.647479360   1.981984187   3.689073695
  C    2.533495901  -0.174489012   3.771639128
  H    3.612186264  -0.304200331   3.883677267
  C    1.698274130  -1.291400401   3.717345439
  H    2.123623336  -2.295745497   3.770889321
  C    0.318814462  -1.125655640   3.586784648
  H   -0.338377049  -1.999563909   3.580839505
  C   -0.225295464   0.156642246   3.505165101
  H   -1.302918264   0.285603844   3.387352448
  C    0.609455140   1.273411610   3.561675519
  H    0.182875624   2.277295051   3.507219635
24
Cycle: 2 E: -15777.945851063445 kcal/mol
  C    0.709635225   1.120789614   0.088951581
  H    1.356435898   1.996491179   0.208751743
  C    1.257775915  -0.161460995   0.133172800
  H    2.336932667  -0.291387887   0.257170180
  C    0.428516249  -1.279110951   0.020737335
  H    0.856322635  -2.285113678   0.067166983
  C   -0.947627309  -1.114291291  -0.141568375
  H   -1.594241203  -1.990462576  -0.259102241
  C   -1.495189631   0.168602376  -0.189618399
  H   -2.575196289   0.298021166  -0.309382360
  C   -0.665574133   1.286555842  -0.078797793
  H   -1.093722523   2.292596527  -0.125627929
  C    1.989724127   1.107717590   3.684687856
  H    2.648245670   1.983219718   3.697011960
  C    2.533452967  -0.174709178   3.769455841
  H    3.614302006  -0.304644863   3.880334317
  C    1.697505566  -1.292169172   3.717698493
  H    2.124188924  -2.298413885   3.773732475
  C    0.318161549  -1.126510520   3.586290992
  H   -0.339201344  -2.002041074   3.570974706
  C   -0.225926714   0.155690244   3.505252606
  H   -1.306139455   0.285421234   3.389704563
  C    0.609786664   1.272912919   3.559070125
  H    0.182323667   2.278631746   3.503287997
24
Cycle: 3 E: -15778.06958451617 kcal/mol
  C    0.711029358   1.119325883   0.090838779
  H    1.361651014   1.995249993   0.201853163
  C    1.259199132  -0.162682339   0.136603007
  H    2.339572719  -0.292570207   0.262785438
  C    0.429945477  -1.279438718   0.022157687
  H    0.858728994  -2.286967956   0.065678293
  C   -0.946925700  -1.114045954  -0.140835296
  H   -1.596006445  -1.991619046  -0.248664086
  C   -1.495190736   0.168733805  -0.189080663
  H   -2.576571357   0.298654663  -0.312318563
  C   -0.665614371   1.285688599  -0.075934226
  H   -1.095080725   2.293358457  -0.120733402
  C    1.986969688   1.108663236   3.683295882
  H    2.643048481   1.987714600   3.704245519
  C    2.531871274  -0.175118401   3.766955646
  H    3.614908412  -0.305479382   3.875937860
  C    1.696983892  -1.292617070   3.716766011
  H    2.124689000  -2.300221172   3.776015439
  C    0.317616173  -1.126205985   3.585096978
  H   -0.339696598  -2.003566053   3.560039628
  C   -0.227061728   0.156815909   3.503836227
  H   -1.309210000   0.286634222   3.391296581
  C    0.607679999   1.274156743   3.555850453
  H    0.180193685   2.281204209   3.497846319
24
Cycle: 4 E: -15778.130428527553 kcal/mol
  C    0.709453732   1.120856157   0.092356958
  H    1.360192702   1.998720300   0.195876100
  C    1.257810879  -0.162333038   0.139061902
  H    2.339483308  -0.293991588   0.267447106
  C    0.429346780  -1.279956005   0.023448437
  H    0.859990608  -2.288632717   0.064629182
  C   -0.947085281  -1.113984848  -0.140042907
  H   -1.597553315  -1.992654357  -0.240252357
  C   -1.494961641   0.169561102  -0.188303159
  H   -2.577077459   0.299290508  -0.314586915
  C   -0.666389897   1.287152103  -0.073707182
  H   -1.095574240   2.296126861  -0.116381933
  C    1.989282381   1.106650259   3.682441744
  H    2.646958410   1.985351135   3.710870029
  C    2.533791024  -0.175879301   3.765282214
  H    3.618066690  -0.304720391   3.872424513
  C    1.697635721  -1.292455510   3.715759526
  H    2.125132798  -2.300973691   3.777699262
  C    0.317414199  -1.126870263   3.583828214
  H   -0.340182938  -2.005024751   3.551080939
  C   -0.227682654   0.155443057   3.502419228
  H   -1.311709803   0.286732578   3.392372133
  C    0.608528530   1.272208286   3.553589149
  H    0.178484116   2.280120580   3.493166304
24
Cycle: 5 E: -15778.14879133805 kcal/mol
  C    0.709958010   1.120756174   0.093471606
  H    1.361472367   1.998915265   0.193306935
  C    1.257983395  -0.162271638   0.140610944
  H    2.339976773  -0.294072217   0.270199654
  C    0.429366745  -1.279921779   0.024442213
  H    0.860440844  -2.289100700   0.064400576
  C   -0.947165092  -1.114036751  -0.139374418
  H   -1.598407771  -1.993009093  -0.236028807
  C   -1.494944563   0.169353712  -0.187718534
  H   -2.577461889   0.299364775  -0.315599483
  C   -0.666173627   1.287035772  -0.072378837
  H   -1.095891676   2.296577426  -0.113961650
  C    1.988736248   1.107007971   3.681648214
  H    2.646025047   1.986270164   3.713734192
  C    2.533397255  -0.175843855   3.764189747
  H    3.618510219  -0.304834813   3.870403710
  C    1.697202724  -1.292774527   3.714930793
  H    2.125123868  -2.301671133   3.778287504
  C    0.317217494  -1.127231455   3.582856817
  H   -0.340220270  -2.005864165   3.546505869
  C   -0.227738914   0.155331000   3.501406371
  H   -1.312427650   0.286704896   3.392636493
  C    0.608400760   1.272361976   3.552169497
  H    0.178224985   2.280645677   3.490546500
24
Cycle: 6 E: -15778.158803879633 kcal/mol
  C    0.710442611   1.120529484   0.094622170
  H    1.362511548   1.998908337   0.191888108
  C    1.258318802  -0.162554261   0.142122980
  H    2.340486519  -0.293835302   0.272726601
  C    0.429688273  -1.279984639   0.025627252
  H    0.860589319  -2.289478722   0.064685566
  C   -0.946875447  -1.114109691  -0.138420375
  H   -1.598779694  -1.993209684  -0.232726778
  C   -1.494649144   0.169342781  -0.186929259
  H   -2.577406861   0.299606793  -0.316082187
  C   -0.665825249   1.286939051  -0.071097667
  H   -1.096195720   2.296715735  -0.111851047
  C    1.988175604   1.107174516   3.680805990
  H    2.645318620   1.986782032   3.715539775
  C    2.532999183  -0.175736789   3.763127233
  H    3.618557450  -0.305166570   3.868693378
  C    1.696908832  -1.292791462   3.713940963
  H    2.125212213  -2.301956572   3.778359163
  C    0.316867826  -1.127204767   3.581609758
  H   -0.340328305  -2.006282755   3.542780634
  C   -0.228093590   0.155394534   3.500195498
  H   -1.313091752   0.286361084   3.392331588
  C    0.607838217   1.272386037   3.550753242
  H    0.178318145   2.281103188   3.488225459
24
Cycle: 7 E: -15778.16401145547 kcal/mol
  C    0.712428818   1.119232171   0.096832020
  H    1.366476895   1.996532060   0.192421512
  C    1.259784109  -0.163243321   0.144739357
  H    2.341906850  -0.293816489   0.276169464
  C    0.430489802  -1.280145126   0.027968963
  H    0.861054112  -2.289890939   0.066318949
  C   -0.946371323  -1.114416946  -0.136576495
  H   -1.598843300  -1.993489051  -0.229212708
  C   -1.494148498   0.168659968  -0.185219965
  H   -2.577132969   0.299328412  -0.315567292
  C   -0.664618719   1.285774381  -0.068922703
  H   -1.095747415   2.295758055  -0.109096294
  C    1.990030192   1.105573560   3.679439485
  H    2.650083519   1.983106709   3.716558229
  C    2.534427035  -0.176731538   3.761516681
  H    3.620016573  -0.306504513   3.866724794
  C    1.697677052  -1.293505981   3.712071438
  H    2.126056310  -2.302820095   3.777368701
  C    0.317405854  -1.127950285   3.579493974
  H   -0.339800282  -2.007157566   3.538696302
  C   -0.227385809   0.154444796   3.497977228
  H   -1.312669779   0.285187346   3.390788304
  C    0.609022500   1.270963650   3.548626247
  H    0.179909495   2.280314852   3.485395493
24
Cycle: 8 E: -15778.171036110569 kcal/mol
  C    0.712620398   1.119329885   0.098312332
  H    1.366950710   1.996817518   0.191836709
  C    1.259869839  -0.163486790   0.146540330
  H    2.342215300  -0.293935167   0.278956682
  C    0.430615449  -1.280487833   0.029616706
  H    0.861219542  -2.290492561   0.067319024
  C   -0.946046078  -1.114588064  -0.135170366
  H   -1.598918330  -1.993716323  -0.226102051
  C   -1.493610941   0.168744355  -0.183998279
  H   -2.576666058   0.299495784  -0.315482933
  C   -0.664175253   1.285913658  -0.067378159
  H   -1.095546320   2.295973588  -0.106777260
  C    1.989629505   1.105676228   3.678300555
  H    2.649795363   1.983182349   3.717651217
  C    2.534019917  -0.176939051   3.760237739
  H    3.619902247  -0.307244895   3.864951349
  C    1.697485508  -1.293963784   3.710656267
  H    2.126193395  -2.303435007   3.776832842
  C    0.317387070  -1.128267570   3.577777144
  H   -0.339668185  -2.007688539   3.535073987
  C   -0.227217674   0.154364119   3.496311187
  H   -1.312713315   0.284754742   3.389797419
  C    0.608937460   1.271097362   3.546953843
  H    0.180471208   2.280845683   3.482888780
24
Cycle: 9 E: -15778.179055556475 kcal/mol
  C    0.713876574   1.118572316   0.101010446
  H    1.369138254   1.995625002   0.193214620
  C    1.260814373  -0.164106728   0.149646647
  H    2.343107729  -0.294125299   0.282935919
  C    0.431264469  -1.280748754   0.032698911
  H    0.861549201  -2.290930498   0.069979868
  C   -0.945511340  -1.114775092  -0.132626364
  H   -1.598785883  -1.993825458  -0.222542877
  C   -1.492982495   0.168454381  -0.181666639
  H   -2.576076795   0.299475989  -0.314246388
  C   -0.663210691   1.285329615  -0.064801152
  H   -1.094952916   2.295455539  -0.103661626
  C    1.988319292   1.106299951   3.676117392
  H    2.647383227   1.984675978   3.717083530
  C    2.532915570  -0.176973509   3.757988636
  H    3.619067463  -0.307864527   3.862572361
  C    1.697049155  -1.294384196   3.707987621
  H    2.126034092  -2.303955572   3.774863657
  C    0.317227616  -1.128419745   3.574763349
  H   -0.339640876  -2.008035721   3.530640689
  C   -0.227193017   0.154585808   3.493209803
  H   -1.312718606   0.284489144   3.387098433
  C    0.608312674   1.271739446   3.544100801
  H    0.180724897   2.281713390   3.479374447
24
Cycle: 10 E: -15778.195165858873 kcal/mol
  C    0.714302685   1.118803391   0.107418508
  H    1.369474940   1.996663868   0.195771082
  C    1.261037866  -0.164709202   0.157101819
  H    2.343569776  -0.295274453   0.292714724
  C    0.431763029  -1.281423814   0.040116815
  H    0.862139581  -2.292075582   0.076506679
  C   -0.944676418  -1.114841818  -0.126326934
  H   -1.598638668  -1.994011899  -0.213420370
  C   -1.491552055   0.168918193  -0.175974430
  H   -2.574497568   0.299766378  -0.311274531
  C   -0.662171206   1.285846610  -0.058533554
  H   -1.093317557   2.296348619  -0.095794542
  C    1.987951930   1.105650694   3.671057417
  H    2.646674893   1.984400176   3.716609222
  C    2.532453794  -0.177891427   3.752646484
  H    3.618961069  -0.308704169   3.856769637
  C    1.697067061  -1.295286393   3.701553841
  H    2.125925400  -2.305128564   3.770084835
  C    0.317258002  -1.129205679   3.567261887
  H   -0.339508275  -2.009060087   3.519303477
  C   -0.227069919   0.153879649   3.485649322
  H   -1.312994070   0.283487512   3.380431721
  C    0.608167514   1.271226526   3.537214365
  H    0.181096214   2.281648902   3.470574493
24
Cycle: 11 E: -15778.214219306328 kcal/mol
  C    0.715696970   1.118409782   0.115566057
  H    1.371108958   1.996203324   0.202749747
  C    1.261890901  -0.165454636   0.165938928
  H    2.344391261  -0.296052572   0.303012148
  C    0.432297810  -1.282151884   0.049194557
  H    0.862362247  -2.293018622   0.085564347
  C   -0.943763159  -1.115259069  -0.118602410
  H   -1.598124525  -1.994224966  -0.204794646
  C   -1.490076304   0.168770557  -0.168693074
  H   -2.572888722   0.299883400  -0.305843341
  C   -0.660415584   1.285680099  -0.051027848
  H   -1.091422454   2.296267054  -0.087808515
  C    1.987754285   1.105111192   3.664457580
  H    2.646297830   1.983866680   3.712194411
  C    2.532045417  -0.178669547   3.746118985
  H    3.618614183  -0.309792004   3.850772759
  C    1.696925602  -1.296405855   3.693527142
  H    2.125826807  -2.306336572   3.762861866
  C    0.317368744  -1.130277677   3.558313653
  H   -0.339231252  -2.010159384   3.508277138
  C   -0.226584401   0.152985156   3.476440356
  H   -1.312524117   0.282259898   3.371117059
  C    0.608393703   1.270692271   3.529126954
  H    0.181905737   2.281377960   3.461538130
24
Cycle: 12 E: -15778.274636109241 kcal/mol
  C    0.722199221   1.111030496   0.167083057
  H    1.379315392   1.988782573   0.253206651
  C    1.264266626  -0.175689580   0.220756592
  H    2.344707043  -0.305591111   0.364579741
  C    0.434856719  -1.291980938   0.104974167
  H    0.861489039  -2.304994793   0.145085926
  C   -0.939287121  -1.120132842  -0.069197441
  H   -1.595164302  -1.997556264  -0.153859693
  C   -1.484433369   0.164839225  -0.123712323
  H   -2.567008426   0.298392642  -0.267979221
  C   -0.652790931   1.279437178  -0.004194411
  H   -1.082038248   2.289118789  -0.040686867
  C    1.987762790   1.101214565   3.622205533
  H    2.645188110   1.980112492   3.677527456
  C    2.533396280  -0.182951179   3.704919229
  H    3.619911276  -0.314278577   3.814931190
  C    1.699431375  -1.300127946   3.644056762
  H    2.127509303  -2.309454207   3.714156909
  C    0.320569629  -1.133663669   3.501714061
  H   -0.335894994  -2.013624315   3.443027177
  C   -0.222886181   0.150296912   3.419695732
  H   -1.307515156   0.277243522   3.309285929
  C    0.610071148   1.268409741   3.478498609
  H    0.185974414   2.279841833   3.407347207
24
Cycle: 13 E: -15778.288372982455 kcal/mol
  C    0.722201529   1.110752543   0.169503751
  H    1.378434331   1.988553979   0.257293113
  C    1.264641767  -0.175523633   0.223116660
  H    2.345322707  -0.306061719   0.366631521
  C    0.434546967  -1.291601976   0.107451992
  H    0.861284225  -2.304233631   0.148501145
  C   -0.939807653  -1.120481888  -0.066777007
  H   -1.595588195  -1.997863270  -0.152578506
  C   -1.484280099   0.164487650  -0.121288199
  H   -2.566572214   0.297988039  -0.264661995
  C   -0.652638584   1.279506049  -0.002052455
  H   -1.081719575   2.289528764  -0.039244169
  C    1.988113380   1.101370661   3.619929823
  H    2.645286609   1.980414831   3.673629585
  C    2.533193299  -0.182682838   3.702675593
  H    3.619450556  -0.313885592   3.813339882
  C    1.699102569  -1.300269440   3.641531375
  H    2.127274570  -2.309792938   3.710767314
  C    0.320353677  -1.133927198   3.499036979
  H   -0.336048947  -2.013662250   3.441356451
  C   -0.223052699   0.149789225   3.417112708
  H   -1.307662010   0.277191692   3.305517499
  C    0.610359861   1.268044187   3.476268064
  H    0.185842199   2.279217361   3.405678372
24
Cycle: 14 E: -15778.302296351496 kcal/mol
  C    0.722169720   1.110177163   0.172223047
  H    1.377384111   1.988023897   0.262414285
  C    1.265134374  -0.175530227   0.225762517
  H    2.345971390  -0.306831104   0.368785688
  C    0.434344288  -1.291202410   0.110178896
  H    0.861057777  -2.303283136   0.152758142
  C   -0.940305160  -1.120808888  -0.063748551
  H   -1.595941838  -1.998167397  -0.151279582
  C   -1.484270936   0.164185325  -0.118516036
  H   -2.566230976   0.297501976  -0.260270071
  C   -0.652684855   1.279388960   0.000382946
  H   -1.081432103   2.289790904  -0.037767261
  C    1.988732054   1.101102503   3.617309679
  H    2.645876845   1.980284715   3.668661987
  C    2.533378189  -0.182635472   3.700045772
  H    3.619110113  -0.313253499   3.811491586
  C    1.699102359  -1.300182637   3.638725643
  H    2.127122480  -2.309828881   3.706402176
  C    0.320247499  -1.133969197   3.495845554
  H   -0.336191163  -2.013496804   3.439758584
  C   -0.223475850   0.149387017   3.414278665
  H   -1.307961193   0.277370415   3.300775885
  C    0.610478977   1.267296891   3.473741569
  H    0.185289584   2.278046112   3.403941107
24
Cycle: 15 E: -15778.098774689337 kcal/mol
  C    0.717317587   1.115789858   0.172900723
  H    1.373824393   1.993726005   0.260642918
  C    1.261163072  -0.178758943   0.225661405
  H    2.343892189  -0.305092979   0.369525630
  C    0.432874944  -1.290700840   0.111213611
  H    0.860720880  -2.305198061   0.151685739
  C   -0.937850720  -1.119899725  -0.065021163
  H   -1.596569361  -1.998012976  -0.149875492
  C   -1.483745867   0.166699363  -0.117615081
  H   -2.568819218   0.298549604  -0.262141471
  C   -0.652996899   1.280170201   0.000623108
  H   -1.082047835   2.289996210  -0.036796280
  C    1.986492817   1.101070695   3.616084378
  H    2.652122890   1.976090937   3.670891518
  C    2.533894516  -0.186949499   3.700250423
  H    3.622938318  -0.314956692   3.811279609
  C    1.701045496  -1.299945661   3.637866791
  H    2.127961553  -2.310705140   3.707753219
  C    0.322127360  -1.135664949   3.497360165
  H   -0.336182231  -2.015322683   3.438154274
  C   -0.220821122   0.150771480   3.413233090
  H   -1.306211096   0.275461030   3.302204306
  C    0.612834605   1.265420470   3.473657959
  H    0.187765869   2.277664557   3.403128007
24
Cycle: 16 E: -15778.215078492334 kcal/mol
  C    0.719169909   1.113646834   0.172641110
  H    1.375183401   1.991546867   0.261320306
  C    1.262680919  -0.177527328   0.225699884
  H    2.344687160  -0.305757486   0.369242598
  C    0.433435508  -1.290890654   0.110817787
  H    0.860849608  -2.304465619   0.152096180
  C   -0.938787426  -1.120247898  -0.064533948
  H   -1.596329790  -1.998072229  -0.150412519
  C   -1.483946201   0.165739926  -0.117959446
  H   -2.567829953   0.298149299  -0.261425430
  C   -0.652877192   1.279870948   0.000531279
  H   -1.081812706   2.289918441  -0.037167711
  C    1.987348181   1.101083170   3.616552907
  H    2.649737452   1.977692730   3.670039018
  C    2.533697639  -0.185302503   3.700172250
  H    3.621475466  -0.314305672   3.811360772
  C    1.700303188  -1.300034872   3.638195233
  H    2.127641131  -2.310370304   3.707236213
  C    0.321409544  -1.135017732   3.496780848
  H   -0.336185555  -2.014624634   3.438767864
  C   -0.221835883   0.150243574   3.413632950
  H   -1.306880434   0.276190975   3.301657669
  C    0.611935441   1.266135313   3.473690218
  H    0.186819056   2.277809735   3.403439067
24
Cycle: 17 E: -15778.265546069373 kcal/mol
  C    0.720386190   1.112239056   0.172469894
  H    1.376075834   1.990114060   0.261766052
  C    1.263678782  -0.176719214   0.225725013
  H    2.345210179  -0.306194613   0.369056296
  C    0.433803298  -1.291013821   0.110557204
  H    0.860934222  -2.303983497   0.152366539
  C   -0.939402165  -1.120477411  -0.064212880
  H   -1.596172466  -1.998111375  -0.150765968
  C   -1.484077643   0.165110201  -0.118185895
  H   -2.567179373   0.297886138  -0.260953926
  C   -0.652797985   1.279673587   0.000470879
  H   -1.081658243   2.289867865  -0.037412220
  C    1.987910106   1.101091524   3.616861161
  H    2.648170322   1.978745186   3.669478125
  C    2.533568446  -0.184220939   3.700120875
  H    3.620513739  -0.313877512   3.811414260
  C    1.699815417  -1.300092333   3.638411370
  H    2.127430645  -2.310150175   3.706895718
  C    0.320938049  -1.134592836   3.496399554
  H   -0.336187670  -2.014165445   3.439171697
  C   -0.222503200   0.149897462   3.413896089
  H   -1.307320962   0.276671124   3.301297639
  C    0.611345228   1.266603434   3.473711689
  H    0.186196142   2.277904657   3.403643856
24
Cycle: 18 E: -15778.289149399961 kcal/mol
  C    0.721155922   1.111268640   0.172249767
  H    1.376542248   1.989036111   0.262262315
  C    1.264480401  -0.176192489   0.225679118
  H    2.345721901  -0.306594441   0.368820955
  C    0.434069947  -1.290904605   0.110312612
  H    0.861032135  -2.303391823   0.152749812
  C   -0.939793190  -1.120647931  -0.063850444
  H   -1.596055416  -1.998162604  -0.151159670
  C   -1.484083738   0.164744095  -0.118341493
  H   -2.566633155   0.297708384  -0.260337380
  C   -0.652724111   1.279567661   0.000380733
  H   -1.081533915   2.289927923  -0.037714111
  C    1.988373658   1.101027074   3.617144807
  H    2.647286943   1.979349684   3.668887285
  C    2.533549076  -0.183537754   3.700105700
  H    3.619849586  -0.313495211   3.811512771
  C    1.699499053  -1.300029754   3.638604660
  H    2.127315045  -2.309915418   3.706431359
  C    0.320624874  -1.134292160   3.496045606
  H   -0.336210456  -2.013772519   3.439632367
  C   -0.223096333   0.149628964   3.414145089
  H   -1.307780934   0.277092354   3.300811961
  C    0.610982273   1.266677132   3.473806492
  H    0.185569575   2.277676752   3.403914891
24
Cycle: 19 E: -15778.300805765428 kcal/mol
  C    0.721708201   1.110590110   0.172024943
  H    1.376817538   1.988241736   0.262772702
  C    1.265107036  -0.175841779   0.225577875
  H    2.346166098  -0.306970717   0.368543648
  C    0.434255323  -1.290788550   0.110116705
  H    0.861140397  -2.302883788   0.153180626
  C   -0.940055545  -1.120763095  -0.063515592
  H   -1.595941269  -1.998206687  -0.151537869
  C   -1.484071976   0.164475483  -0.118420079
  H   -2.566246171   0.297580498  -0.259657260
  C   -0.652640915   1.279487230   0.000265218
  H   -1.081400865   2.289996031  -0.038045961
  C    1.988672274   1.100995935   3.617384783
  H    2.646704781   1.979755941   3.668285117
  C    2.533538396  -0.183060530   3.700115291
  H    3.619392855  -0.313196317   3.811635020
  C    1.699236285  -1.299960621   3.638735142
  H    2.127237288  -2.309726240   3.705906908
  C    0.320388117  -1.134086998   3.495756296
  H   -0.336243207  -2.013483670   3.440097143
  C   -0.223570828   0.149459745   3.414345934
  H   -1.308155440   0.277486848   3.300283783
  C    0.610730249   1.266682855   3.473950224
  H    0.185000086   2.277396169   3.404230661
24
Cycle: 20 E: -15778.306832429418 kcal/mol
  C    0.722111279   1.110130060   0.171806970
  H    1.376973408   1.987691274   0.263308108
  C    1.265599883  -0.175600420   0.225436032
  H    2.346552769  -0.307311924   0.368212382
  C    0.434410174  -1.290658251   0.109965190
  H    0.861263420  -2.302448091   0.153667852
  C   -0.940213115  -1.120834621  -0.063225871
  H   -1.595817039  -1.998243418  -0.151892401
  C   -1.484047623   0.164297698  -0.118435947
  H   -2.565994520   0.297496708  -0.258886914
  C   -0.652554525   1.279427552   0.000134289
  H   -1.081253994   2.290056118  -0.038417475
  C    1.988861958   1.100974096   3.617580752
  H    2.646357211   1.980005734   3.667649510
  C    2.533536186  -0.182729462   3.700139369
  H    3.619092269  -0.312962015   3.811774611
  C    1.699027725  -1.299873335   3.638814257
  H    2.127191234  -2.309558706   3.705304788
  C    0.320184196  -1.133946896   3.495543775
  H   -0.336301982  -2.013292616   3.440571055
  C   -0.223963113   0.149328436   3.414508932
  H   -1.308461578   0.277844387   3.299703003
  C    0.610531711   1.266610017   3.474127331
  H    0.184462340   2.277063031   3.404602822
24
Cycle: 21 E: -15778.31016230858 kcal/mol
  C    0.722434509   1.109809597   0.171595234
  H    1.377076862   1.987311461   0.263837907
  C    1.266002028  -0.175438344   0.225265321
  H    2.346886564  -0.307626386   0.367834248
  C    0.434548399  -1.290556855   0.109858840
  H    0.861400847  -2.302110021   0.154182911
  C   -0.940299618  -1.120879854  -0.062972028
  H   -1.595678826  -1.998275057  -0.152197813
  C   -1.484014473   0.164171793  -0.118382616
  H   -2.565836568   0.297438111  -0.258047885
  C   -0.652451738   1.279380488  -0.000004025
  H   -1.081083376   2.290102563  -0.038813357
  C    1.988951569   1.100972977   3.617742390
  H    2.646107700   1.980183120   3.667000939
  C    2.533506903  -0.182497593   3.700159643
  H    3.618865892  -0.312782428   3.811909621
  C    1.698844506  -1.299801956   3.638836096
  H    2.127145723  -2.309427962   3.704649108
  C    0.320002884  -1.133855445   3.495390082
  H   -0.336372986  -2.013177917   3.441030367
  C   -0.224287411   0.149243488   3.414631942
  H   -1.308695372   0.278179956   3.299104070
  C    0.610352405   1.266554566   3.474326246
  H    0.183950835   2.276775893   3.405018646
24
Cycle: 22 E: -15778.312189101513 kcal/mol
  C    0.722714638   1.109591139   0.171389185
  H    1.377158487   1.987060868   0.264363199
  C    1.266340038  -0.175335043   0.225077900
  H    2.347189950  -0.307905571   0.367392626
  C    0.434691264  -1.290474917   0.109779867
  H    0.861544306  -2.301847935   0.154740236
  C   -0.940309906  -1.120915636  -0.062738180
  H   -1.595516121  -1.998309383  -0.152432433
  C   -1.483948780   0.164087844  -0.118273569
  H   -2.565723854   0.297411067  -0.257086886
  C   -0.652321303   1.279346144  -0.000133685
  H   -1.080888459   2.290142576  -0.039244180
  C    1.988942446   1.100997646   3.617863647
  H    2.645888754   1.980332406   3.666308168
  C    2.533428045  -0.182317531   3.700155897
  H    3.618652883  -0.312653875   3.812022003
  C    1.698657551  -1.299727296   3.638814503
  H    2.127102959  -2.309318007   3.703907738
  C    0.319807833  -1.133793644   3.495287585
  H   -0.336477057  -2.013120064   3.441482338
  C   -0.224582380   0.149182190   3.414735179
  H   -1.308899628   0.278475343   3.298467699
  C    0.610158806   1.266492343   3.474532017
  H    0.183450751   2.276517473   3.405497133
